%%%%%%%%%%%%%%%%%%%%%%%%%%%%%%%%%%%%%%%%%%%%%%%%%%%%%%%%%%%%%%%%%%%%%%%%%%%%%%%%
% SU2 configuration file                                                       %
% Case description: Laminar premixed transient flame propagating in a channel  %
% Author: Nijso Beishuizen                                                     %
% Institution: TU Eindhoven                                                    %
% Date: 30/04/2026                                                             %
% File Version 8.5.0 "Harrier"                                                 %
%                                                                              %
%%%%%%%%%%%%%%%%%%%%%%%%%%%%%%%%%%%%%%%%%%%%%%%%%%%%%%%%%%%%%%%%%%%%%%%%%%%%%%%%
%
% ------------- DIRECT, ADJOINT, AND LINEARIZED PROBLEM DEFINITION ------------%
%
SOLVER= INC_NAVIER_STOKES
KIND_TURB_MODEL= NONE
MATH_PROBLEM= DIRECT
RESTART_SOL= YES
%
% ---------------- INCOMPRESSIBLE FLOW CONDITION DEFINITION -------------------%
%
%INC_DENSITY_MODEL= FLAMELET
INC_DENSITY_MODEL= VARIABLE 
INC_DENSITY_INIT= 1.00
INC_VELOCITY_INIT= (0.5, 0.0, 0.0 )
INC_TEMPERATURE_INIT= 300.0
INC_NONDIM= DIMENSIONAL
%
% -------------------- FLUID MODEL --------------------------------------- %
%
FLUID_MODEL= FLUID_FLAMELET
PREFERENTIAL_DIFFUSION= NO
FILENAMES_INTERPOLATOR= (LUT_ch4.drg)
%FILENAMES_INTERPOLATOR= (LUT_methane_3D.drg)
CONTROLLING_VARIABLE_NAMES= (ProgressVariable, EnthalpyTot, MixtureFraction)
CONTROLLING_VARIABLE_SOURCE_NAMES= (ProdRateTot_PV, NULL, NULL)
%
% -------------------- SCALAR TRANSPORT ---------------------------------------%
%
KIND_SCALAR_MODEL= FLAMELET
DIFFUSIVITY_MODEL= FLAMELET
VISCOSITY_MODEL= FLAMELET
CONDUCTIVITY_MODEL= FLAMELET
%FLAME_INIT_METHOD= FLAME_FRONT
FLAME_INIT_METHOD= NONE

FLAME_INIT= (0.009, 0.00, 0.00, 1.0, 0.0, 0.0, 5.0e-4, 0.1)
% # progvar, enthalpy, mixture fraction phi=0.75
SPECIES_INIT= (0.0, -193150, 0.04197)
CONV_NUM_METHOD_SPECIES= BOUNDED_SCALAR
%CONV_NUM_METHOD_SPECIES= SCALAR_UPWIND 
MUSCL_SPECIES= YES
SLOPE_LIMITER_SPECIES= NONE
TIME_DISCRE_SPECIES= EULER_IMPLICIT
% SCALAR CLIPPING
SPECIES_CLIPPING= YES
SPECIES_CLIPPING_MIN= 0.000 -1e6 0.03
SPECIES_CLIPPING_MAX= 0.300 +1e5 0.05
%
MARKER_INLET_SPECIES= (inlet, 0, -193154.0, 0.04197)
CFL_REDUCTION_SPECIES= 1.0
MARKER_SPECIES_STRONG_BC= (inlet, outlet)
LOOKUP_NAMES= (MolarWeightMix, Conductivity, Cp)
%USER_SCALAR_NAMES= (CO, NOx)
%USER_SOURCE_NAMES= ( ProdRatePos_Y-CO,  ProdRateNegScaled_Y-CO  , ProdRateTot_Y-NOx, NULL)
%
% ---------------------- REFERENCE VALUE DEFINITION ---------------------------%
%
REF_ORIGIN_MOMENT_X= 0.25
REF_ORIGIN_MOMENT_Y= 0.00
REF_ORIGIN_MOMENT_Z= 0.00
REF_LENGTH= 1.0
REF_AREA= 1.0
%
% -------------------- BOUNDARY CONDITION DEFINITION --------------------------%
%
MARKER_SYM= (symmetry_bottom)
MARKER_EULER= wall
INC_INLET_TYPE= VELOCITY_INLET

% switch from 'steady' flame to 'propagating with 0.1 m/s'
%MARKER_INLET= (inlet, 300.0, 0.227, 1.0, 0.0, 0.0)
MARKER_INLET= (inlet, 300.0, 0.127, 1.0, 0.0, 0.0)

INC_OUTLET_TYPE= PRESSURE_OUTLET
INC_INLET_DAMPING= 0.1
INC_OUTLET_DAMPING= 0.1
MARKER_OUTLET= (outlet, 0.0)
MARKER_PLOTTING= ( inlet )
MARKER_MONITORING= ( inlet )
MARKER_ANALYZE= ( inlet,outlet )
MARKER_ANALYZE_AVERAGE= AREA
%
% ------------- COMMON PARAMETERS DEFINING THE NUMERICAL METHOD ---------------%
%
NUM_METHOD_GRAD= WEIGHTED_LEAST_SQUARES
CFL_NUMBER= 10000
CFL_ADAPT= NO
OUTPUT_WRT_FREQ= 10,10
%
% ------------------------- UNSTEADY SIMULATION -------------------------------%
%
TIME_DOMAIN= YES
%
TIME_MARCHING= DUAL_TIME_STEPPING-1ST_ORDER
%TIME_MARCHING= DUAL_TIME_STEPPING-2ND_ORDER
%
RESTART_ITER=1
TIME_ITER= 50
TIME_STEP= 2e-4
% time= 0.1 s
MAX_TIME= 0.1
%
UNST_CFL_NUMBER= 0.0
INNER_ITER= 100
LINEAR_SOLVER= FGMRES
LINEAR_SOLVER_PREC= ILU
% no impact on flame speed
LINEAR_SOLVER_ERROR= 1e-3
LINEAR_SOLVER_ITER= 10
%
% -------------------------- MULTIGRID PARAMETERS -----------------------------%
%
MGLEVEL= 0
%
% -------------------- FLOW NUMERICAL METHOD DEFINITION -----------------------%
%
CONV_NUM_METHOD_FLOW= FDS
MUSCL_FLOW= YES
SLOPE_LIMITER_FLOW= NONE
TIME_DISCRE_FLOW= EULER_IMPLICIT
%
% --------------------------- CONVERGENCE PARAMETERS --------------------------%
%
CONV_RESIDUAL_MINVAL= -10.0
CONV_FIELD= RMS_ProgressVariable, RMS_VELOCITY-X, RMS_MixtureFraction
CONV_STARTITER= 10
CONV_CAUCHY_ELEMS= 100
CONV_CAUCHY_EPS= 1E-6
SCREEN_OUTPUT= TIME_ITER INNER_ITER RMS_VELOCITY-X RMS_PRESSURE RMS_ProgressVariable RMS_EnthalpyTot RMS_MixtureFraction
HISTORY_OUTPUT= RMS_RES AERO_COEFF FLOW_COEFF FLOW_COEFF_SURF
VOLUME_OUTPUT= SOLUTION PRIMITIVE SOURCE RESIDUAL SENSITIVITY LOOKUP TIMESTEP
%
% ------------------------- INPUT/OUTPUT INFORMATION --------------------------%
%
MESH_FORMAT= SU2
MESH_FILENAME= mesh_finer.su2 
MESH_OUT_FILENAME= mesh_out
SOLUTION_FILENAME= solution
RESTART_FILENAME= restart
OUTPUT_FILES= (RESTART,PARAVIEW)
%OUTPUT_FILES= (RESTART)
TABULAR_FORMAT= CSV
CONV_FILENAME= history
VOLUME_FILENAME= ch4_flame_cfd
SURFACE_FILENAME= surface_flow
WRT_PERFORMANCE= YES
SCREEN_WRT_FREQ_INNER= 1
SCREEN_WRT_FREQ_OUTER= 1
