
-------------------------------------------------------------------------
|    ___ _   _ ___                                                      |
|   / __| | | |_  )   Release 7.0.8 "Blackbird"                         |
|   \__ \ |_| |/ /                                                      |
|   |___/\___//___|   Suite (Computational Fluid Dynamics Code)         |
|                                                                       |
-------------------------------------------------------------------------
| SU2 Project Website: https://su2code.github.io                        |
|                                                                       |
| The SU2 Project is maintained by the SU2 Foundation                   |
| (http://su2foundation.org)                                            |
-------------------------------------------------------------------------
| Copyright 2012-2020, SU2 Contributors                                 |
|                                                                       |
| SU2 is free software; you can redistribute it and/or                  |
| modify it under the terms of the GNU Lesser General Public            |
| License as published by the Free Software Foundation; either          |
| version 2.1 of the License, or (at your option) any later version.    |
|                                                                       |
| SU2 is distributed in the hope that it will be useful,                |
| but WITHOUT ANY WARRANTY; without even the implied warranty of        |
| MERCHANTABILITY or FITNESS FOR A PARTICULAR PURPOSE. See the GNU      |
| Lesser General Public License for more details.                       |
|                                                                       |
| You should have received a copy of the GNU Lesser General Public      |
| License along with SU2. If not, see <http://www.gnu.org/licenses/>.   |
-------------------------------------------------------------------------

Parsing config file for zone 0

----------------- Physical Case Definition ( Zone 0 ) -------------------
Compressible Laminar Navier-Stokes' equations.
Mach number: 5.
Angle of attack (AoA): 0 deg, and angle of sideslip (AoS): 0 deg.
Reynolds number: 0. Reference length 1.
No restart solution, use the values at infinity (freestream).
Dimensional simulation.
The reference area is 1 m^2.
The semi-span will be computed using the max y(3D) value.
The reference length is 1 m.
Reference origin for moment evaluation is (0, 0, 0).
Surface(s) where the force coefficients are evaluated: Wall.

Input mesh file name: viscwedge.su2

--------------- Space Numerical Integration ( Zone 0 ) ------------------
AUSM solver for the flow inviscid terms.
Standard Roe without low-dissipation function.
First order integration in space.
Average of gradients with correction (viscous flow terms).
Gradient for upwind reconstruction: inverse-distance weighted Least-Squares.
Gradient for viscous and source terms: inverse-distance weighted Least-Squares.

--------------- Time Numerical Integration  ( Zone 0 ) ------------------
Local time stepping (steady state simulation).
Euler explicit method for the flow equations.
No CFL adaptation.
Courant-Friedrichs-Lewy number:      0.5

------------------ Convergence Criteria  ( Zone 0 ) ---------------------
Maximum number of solver subiterations: 2500.
Begin convergence monitoring at iteration 10.
Residual minimum value: 1e-50.
Cauchy series min. value: 1e-10.
Number of Cauchy elements: 100.
Begin windowed time average at iteration 0.

-------------------- Output Information ( Zone 0 ) ----------------------
Writing solution files every 100 iterations.
Writing the convergence history file every 1 inner iterations.
Writing the screen convergence history every 1 inner iterations.
The tabular file format is Tecplot (.dat).
Convergence history file name: convergence.
Forces breakdown file name: forces_breakdown.dat.
Surface file name: soln_surface.
Volume file name: soln_volume.
Restart file name: restart_flow.dat.

------------- Config File Boundary Information ( Zone 0 ) ---------------
+-----------------------------------------------------------------------+
|                        Marker Type|                        Marker Name|
+-----------------------------------------------------------------------+
|                          Far-field|                           Farfield|
|                                   |                              Inlet|
|                                   |                               Exit|
|                                   |                              Euler|
|                                   |                               Wall|
+-----------------------------------------------------------------------+

-------------------- Output Preprocessing ( Zone 0 ) --------------------
Screen output fields: INNER_ITER, RMS_DENSITY, RMS_MOMENTUM-X, RMS_MOMENTUM-Y, RMS_ENERGY
History output group(s): ITER, RMS_RES
Convergence field(s): RMS_DENSITY
Warning: No (valid) fields chosen for time convergence monitoring. Time convergence monitoring inactive.
Volume output fields: COORDINATES, SOLUTION, PRIMITIVE

------------------- Geometry Preprocessing ( Zone 0 ) -------------------
Two dimensional problem.
120 grid points.
92 volume elements.
5 surface markers.
4 boundary elements in index 0 (Marker = Inlet).
19 boundary elements in index 1 (Marker = Wall).
4 boundary elements in index 2 (Marker = Exit).
23 boundary elements in index 3 (Marker = Farfield).
4 boundary elements in index 4 (Marker = Euler).
92 quadrilaterals.
Setting point connectivity.
Renumbering points (Reverse Cuthill McKee Ordering).
Recomputing point connectivity.
Setting element connectivity.
Checking the numerical grid orientation.
All volume elements are correctly orientend.
All surface elements are correctly orientend.
Identifying edges and vertices.
Computing centers of gravity.
Setting the control volume structure.
Area of the computational grid: 0.225251.
Searching for the closest normal neighbors to the surfaces.
Storing a mapping from global to local point index.
Compute the surface curvature.
Max K: 72.2765. Mean K: 6.49311. Standard deviation K: 17.6823.
Checking for periodicity.
Computing mesh quality statistics for the dual control volumes.
+--------------------------------------------------------------+
|           Mesh Quality Metric|        Minimum|        Maximum|
+--------------------------------------------------------------+
|    Orthogonality Angle (deg.)|        54.3114|        89.6892|
|     CV Face Area Aspect Ratio|        1.02829|        3.84515|
|           CV Sub-Volume Ratio|        1.01378|        2.32201|
+--------------------------------------------------------------+
Finding max control volume width.
Wetted area = 0 m.
Area projection in the x-plane = 0 m, y-plane = 0 m.
Max. coordinate in the x-direction = -1e+10 m, y-direction = -1e+10 m.
Min. coordinate in the x-direction = 1e+10 m, y-direction = 1e+10 m.
Computing wall distances.

-------------------- Solver Preprocessing ( Zone 0 ) --------------------
cs[0]=0
cs[1]=0
cs[2]=0
cs[3]=0.767082
cs[4]=0.232918
GetFluidModel()=0x556344668f80
GetFluidModel()->GetStaticEnergy()=207258
ModVel_FreeStreamND=1700.97
ModVel_FreeStreamND=1700.97
Energy_FreeStreamND=1.6539e+06
Viscous flow: Computing pressure using the ideal gas law
based on the free-stream temperature and a density computed
from the Reynolds number.
Force coefficients computed using free-stream values.

-- Models:
+------------------------------------------------------------------------------+
|          Viscosity Model|        Conductivity Model|              Fluid Model|
+------------------------------------------------------------------------------+
|               SUTHERLAND|          CONSTANT_PRANDTL|        THERMALLY_PERFECT|
+------------------------------------------------------------------------------+
-- Fluid properties:
+------------------------------------------------------------------------------+
|                  Name|    Dim. value|    Ref. value|      Unit|Non-dim. value|
+------------------------------------------------------------------------------+
|        Ref. Viscosity|     1.716e-05|             1|   N.s/m^2|     1.716e-05|
|      Sutherland Temp.|        273.15|             1|         K|        273.15|
|     Sutherland Const.|         110.4|             1|         K|         110.4|
+------------------------------------------------------------------------------+
|        Prandtl (Lam.)|             -|             -|         -|          0.72|
|       Prandtl (Turb.)|             -|             -|         -|           0.9|
+------------------------------------------------------------------------------+
|          Gas Constant|       287.058|             1|  N.m/kg.K|       287.058|
|      Spec. Heat Ratio|             -|             -|         -|       1.39911|
+------------------------------------------------------------------------------+
-- Initial and free-stream conditions:
+------------------------------------------------------------------------------+
|                  Name|    Dim. value|    Ref. value|      Unit|Non-dim. value|
+------------------------------------------------------------------------------+
|       Static Pressure|        101325|             1|        Pa|        101325|
|               Density|       1.22498|             1|    kg/m^3|       1.22498|
|           Temperature|        288.15|             1|         K|        288.15|
|          Total Energy|    1.6539e+06|             1|   m^2/s^2|    1.6539e+06|
|            Velocity-X|       1700.97|             1|       m/s|       1700.97|
|            Velocity-Y|             0|             1|       m/s|             0|
|    Velocity Magnitude|       1700.97|             1|       m/s|       1700.97|
+------------------------------------------------------------------------------+
|             Viscosity|   1.78934e-05|             1|   N.s/m^2|   1.78934e-05|
|          Conductivity|             -|             1|   W/m^2.K|             -|
+------------------------------------------------------------------------------+
|           Mach Number|             -|             -|         -|             5|
|       Reynolds Number|             -|             -|         -|             0|
+------------------------------------------------------------------------------+
Explicit scheme. No Jacobian structure (Navier-Stokes). MG level: 0.

------------------- Numerics Preprocessing ( Zone 0 ) -------------------

----------------- Integration Preprocessing ( Zone 0 ) ------------------

------------------- Iteration Preprocessing ( Zone 0 ) ------------------
Euler/Navier-Stokes/RANS fluid iteration.

------------------------------ Begin Solver -----------------------------

Simulation Run using the Single-zone Driver
BEFORE PREPROCESSING
CEulerSolver::CommonPreprocessing
AFTER PREPROCESSING
BEFORE SPACE INTEGRATION
PrimVar_i[nDim+2]=1.22498
PrimVar_j[nDim+2]=1.22498
Density=1.22498
divVel=0
viscosity=1.78934e-05
density=1.22498
turb_ke=0
stress[iDim][iDim]=0
stress[iDim][iDim]=0
PrimVar_i[nDim+2]=1.22498
PrimVar_j[nDim+2]=1.22498
Density=1.22498
divVel=0
viscosity=1.78934e-05
density=1.22498
turb_ke=0
stress[iDim][iDim]=0
stress[iDim][iDim]=0
PrimVar_i[nDim+2]=1.22498
PrimVar_j[nDim+2]=1.22498
Density=1.22498
divVel=0
viscosity=1.78934e-05
density=1.22498
turb_ke=0
stress[iDim][iDim]=0
stress[iDim][iDim]=0
PrimVar_i[nDim+2]=1.22498
PrimVar_j[nDim+2]=1.22498
Density=1.22498
divVel=0
viscosity=1.78934e-05
density=1.22498
turb_ke=0
stress[iDim][iDim]=0
stress[iDim][iDim]=0
PrimVar_i[nDim+2]=1.22498
PrimVar_j[nDim+2]=1.22498
Density=1.22498
divVel=0
viscosity=1.78934e-05
density=1.22498
turb_ke=0
stress[iDim][iDim]=0
stress[iDim][iDim]=0
PrimVar_i[nDim+2]=1.22498
PrimVar_j[nDim+2]=1.22498
Density=1.22498
divVel=0
viscosity=1.78934e-05
density=1.22498
turb_ke=0
stress[iDim][iDim]=0
stress[iDim][iDim]=0
PrimVar_i[nDim+2]=1.22498
PrimVar_j[nDim+2]=1.22498
Density=1.22498
divVel=0
viscosity=1.78934e-05
density=1.22498
turb_ke=0
stress[iDim][iDim]=0
stress[iDim][iDim]=0
PrimVar_i[nDim+2]=1.22498
PrimVar_j[nDim+2]=1.22498
Density=1.22498
divVel=0
viscosity=1.78934e-05
density=1.22498
turb_ke=0
stress[iDim][iDim]=0
stress[iDim][iDim]=0
PrimVar_i[nDim+2]=1.22498
PrimVar_j[nDim+2]=1.22498
Density=1.22498
divVel=0
viscosity=1.78934e-05
density=1.22498
turb_ke=0
stress[iDim][iDim]=0
stress[iDim][iDim]=0
PrimVar_i[nDim+2]=1.22498
PrimVar_j[nDim+2]=1.22498
Density=1.22498
divVel=0
viscosity=1.78934e-05
density=1.22498
turb_ke=0
stress[iDim][iDim]=0
stress[iDim][iDim]=0
PrimVar_i[nDim+2]=1.22498
PrimVar_j[nDim+2]=1.22498
Density=1.22498
divVel=0
viscosity=1.78934e-05
density=1.22498
turb_ke=0
stress[iDim][iDim]=0
stress[iDim][iDim]=0
PrimVar_i[nDim+2]=1.22498
PrimVar_j[nDim+2]=1.22498
Density=1.22498
divVel=0
viscosity=1.78934e-05
density=1.22498
turb_ke=0
stress[iDim][iDim]=0
stress[iDim][iDim]=0
PrimVar_i[nDim+2]=1.22498
PrimVar_j[nDim+2]=1.22498
Density=1.22498
divVel=0
viscosity=1.78934e-05
density=1.22498
turb_ke=0
stress[iDim][iDim]=0
stress[iDim][iDim]=0
PrimVar_i[nDim+2]=1.22498
PrimVar_j[nDim+2]=1.22498
Density=1.22498
divVel=0
viscosity=1.78934e-05
density=1.22498
turb_ke=0
stress[iDim][iDim]=0
stress[iDim][iDim]=0
PrimVar_i[nDim+2]=1.22498
PrimVar_j[nDim+2]=1.22498
Density=1.22498
divVel=0
viscosity=1.78934e-05
density=1.22498
turb_ke=0
stress[iDim][iDim]=0
stress[iDim][iDim]=0
PrimVar_i[nDim+2]=1.22498
PrimVar_j[nDim+2]=1.22498
Density=1.22498
divVel=0
viscosity=1.78934e-05
density=1.22498
turb_ke=0
stress[iDim][iDim]=0
stress[iDim][iDim]=0
PrimVar_i[nDim+2]=1.22498
PrimVar_j[nDim+2]=1.22498
Density=1.22498
divVel=0
viscosity=1.78934e-05
density=1.22498
turb_ke=0
stress[iDim][iDim]=0
stress[iDim][iDim]=0
PrimVar_i[nDim+2]=1.22498
PrimVar_j[nDim+2]=1.22498
Density=1.22498
divVel=0
viscosity=1.78934e-05
density=1.22498
turb_ke=0
stress[iDim][iDim]=0
stress[iDim][iDim]=0
PrimVar_i[nDim+2]=1.22498
PrimVar_j[nDim+2]=1.22498
Density=1.22498
divVel=0
viscosity=1.78934e-05
density=1.22498
turb_ke=0
stress[iDim][iDim]=0
stress[iDim][iDim]=0
PrimVar_i[nDim+2]=1.22498
PrimVar_j[nDim+2]=1.22498
Density=1.22498
divVel=0
viscosity=1.78934e-05
density=1.22498
turb_ke=0
stress[iDim][iDim]=0
stress[iDim][iDim]=0
PrimVar_i[nDim+2]=1.22498
PrimVar_j[nDim+2]=1.22498
Density=1.22498
divVel=0
viscosity=1.78934e-05
density=1.22498
turb_ke=0
stress[iDim][iDim]=0
stress[iDim][iDim]=0
PrimVar_i[nDim+2]=1.22498
PrimVar_j[nDim+2]=1.22498
Density=1.22498
divVel=0
viscosity=1.78934e-05
density=1.22498
turb_ke=0
stress[iDim][iDim]=0
stress[iDim][iDim]=0
PrimVar_i[nDim+2]=1.22498
PrimVar_j[nDim+2]=1.22498
Density=1.22498
divVel=0
viscosity=1.78934e-05
density=1.22498
turb_ke=0
stress[iDim][iDim]=0
stress[iDim][iDim]=0
PrimVar_i[nDim+2]=1.22498
PrimVar_j[nDim+2]=1.22498
Density=1.22498
divVel=0
viscosity=1.78934e-05
density=1.22498
turb_ke=0
stress[iDim][iDim]=0
stress[iDim][iDim]=0
PrimVar_i[nDim+2]=1.22498
PrimVar_j[nDim+2]=1.22498
Density=1.22498
divVel=0
viscosity=1.78934e-05
density=1.22498
turb_ke=0
stress[iDim][iDim]=0
stress[iDim][iDim]=0
PrimVar_i[nDim+2]=1.22498
PrimVar_j[nDim+2]=1.22498
Density=1.22498
divVel=0
viscosity=1.78934e-05
density=1.22498
turb_ke=0
stress[iDim][iDim]=0
stress[iDim][iDim]=0
PrimVar_i[nDim+2]=1.22498
PrimVar_j[nDim+2]=1.22498
Density=1.22498
divVel=0
viscosity=1.78934e-05
density=1.22498
turb_ke=0
stress[iDim][iDim]=0
stress[iDim][iDim]=0
PrimVar_i[nDim+2]=1.22498
PrimVar_j[nDim+2]=1.22498
Density=1.22498
divVel=0
viscosity=1.78934e-05
density=1.22498
turb_ke=0
stress[iDim][iDim]=0
stress[iDim][iDim]=0
PrimVar_i[nDim+2]=1.22498
PrimVar_j[nDim+2]=1.22498
Density=1.22498
divVel=0
viscosity=1.78934e-05
density=1.22498
turb_ke=0
stress[iDim][iDim]=0
stress[iDim][iDim]=0
PrimVar_i[nDim+2]=1.22498
PrimVar_j[nDim+2]=1.22498
Density=1.22498
divVel=0
viscosity=1.78934e-05
density=1.22498
turb_ke=0
stress[iDim][iDim]=0
stress[iDim][iDim]=0
PrimVar_i[nDim+2]=1.22498
PrimVar_j[nDim+2]=1.22498
Density=1.22498
divVel=0
viscosity=1.78934e-05
density=1.22498
turb_ke=0
stress[iDim][iDim]=0
stress[iDim][iDim]=0
PrimVar_i[nDim+2]=1.22498
PrimVar_j[nDim+2]=1.22498
Density=1.22498
divVel=0
viscosity=1.78934e-05
density=1.22498
turb_ke=0
stress[iDim][iDim]=0
stress[iDim][iDim]=0
PrimVar_i[nDim+2]=1.22498
PrimVar_j[nDim+2]=1.22498
Density=1.22498
divVel=0
viscosity=1.78934e-05
density=1.22498
turb_ke=0
stress[iDim][iDim]=0
stress[iDim][iDim]=0
PrimVar_i[nDim+2]=1.22498
PrimVar_j[nDim+2]=1.22498
Density=1.22498
divVel=0
viscosity=1.78934e-05
density=1.22498
turb_ke=0
stress[iDim][iDim]=0
stress[iDim][iDim]=0
PrimVar_i[nDim+2]=1.22498
PrimVar_j[nDim+2]=1.22498
Density=1.22498
divVel=0
viscosity=1.78934e-05
density=1.22498
turb_ke=0
stress[iDim][iDim]=0
stress[iDim][iDim]=0
PrimVar_i[nDim+2]=1.22498
PrimVar_j[nDim+2]=1.22498
Density=1.22498
divVel=0
viscosity=1.78934e-05
density=1.22498
turb_ke=0
stress[iDim][iDim]=0
stress[iDim][iDim]=0
PrimVar_i[nDim+2]=1.22498
PrimVar_j[nDim+2]=1.22498
Density=1.22498
divVel=0
viscosity=1.78934e-05
density=1.22498
turb_ke=0
stress[iDim][iDim]=0
stress[iDim][iDim]=0
PrimVar_i[nDim+2]=1.22498
PrimVar_j[nDim+2]=1.22498
Density=1.22498
divVel=0
viscosity=1.78934e-05
density=1.22498
turb_ke=0
stress[iDim][iDim]=0
stress[iDim][iDim]=0
PrimVar_i[nDim+2]=1.22498
PrimVar_j[nDim+2]=1.22498
Density=1.22498
divVel=0
viscosity=1.78934e-05
density=1.22498
turb_ke=0
stress[iDim][iDim]=0
stress[iDim][iDim]=0
PrimVar_i[nDim+2]=1.22498
PrimVar_j[nDim+2]=1.22498
Density=1.22498
divVel=0
viscosity=1.78934e-05
density=1.22498
turb_ke=0
stress[iDim][iDim]=0
stress[iDim][iDim]=0
PrimVar_i[nDim+2]=1.22498
PrimVar_j[nDim+2]=1.22498
Density=1.22498
divVel=0
viscosity=1.78934e-05
density=1.22498
turb_ke=0
stress[iDim][iDim]=0
stress[iDim][iDim]=0
PrimVar_i[nDim+2]=1.22498
PrimVar_j[nDim+2]=1.22498
Density=1.22498
divVel=0
viscosity=1.78934e-05
density=1.22498
turb_ke=0
stress[iDim][iDim]=0
stress[iDim][iDim]=0
PrimVar_i[nDim+2]=1.22498
PrimVar_j[nDim+2]=1.22498
Density=1.22498
divVel=0
viscosity=1.78934e-05
density=1.22498
turb_ke=0
stress[iDim][iDim]=0
stress[iDim][iDim]=0
PrimVar_i[nDim+2]=1.22498
PrimVar_j[nDim+2]=1.22498
Density=1.22498
divVel=0
viscosity=1.78934e-05
density=1.22498
turb_ke=0
stress[iDim][iDim]=0
stress[iDim][iDim]=0
PrimVar_i[nDim+2]=1.22498
PrimVar_j[nDim+2]=1.22498
Density=1.22498
divVel=0
viscosity=1.78934e-05
density=1.22498
turb_ke=0
stress[iDim][iDim]=0
stress[iDim][iDim]=0
PrimVar_i[nDim+2]=1.22498
PrimVar_j[nDim+2]=1.22498
Density=1.22498
divVel=0
viscosity=1.78934e-05
density=1.22498
turb_ke=0
stress[iDim][iDim]=0
stress[iDim][iDim]=0
PrimVar_i[nDim+2]=1.22498
PrimVar_j[nDim+2]=1.22498
Density=1.22498
divVel=0
viscosity=1.78934e-05
density=1.22498
turb_ke=0
stress[iDim][iDim]=0
stress[iDim][iDim]=0
PrimVar_i[nDim+2]=1.22498
PrimVar_j[nDim+2]=1.22498
Density=1.22498
divVel=0
viscosity=1.78934e-05
density=1.22498
turb_ke=0
stress[iDim][iDim]=0
stress[iDim][iDim]=0
PrimVar_i[nDim+2]=1.22498
PrimVar_j[nDim+2]=1.22498
Density=1.22498
divVel=0
viscosity=1.78934e-05
density=1.22498
turb_ke=0
stress[iDim][iDim]=0
stress[iDim][iDim]=0
PrimVar_i[nDim+2]=1.22498
PrimVar_j[nDim+2]=1.22498
Density=1.22498
divVel=0
viscosity=1.78934e-05
density=1.22498
turb_ke=0
stress[iDim][iDim]=0
stress[iDim][iDim]=0
PrimVar_i[nDim+2]=1.22498
PrimVar_j[nDim+2]=1.22498
Density=1.22498
divVel=0
viscosity=1.78934e-05
density=1.22498
turb_ke=0
stress[iDim][iDim]=0
stress[iDim][iDim]=0
PrimVar_i[nDim+2]=1.22498
PrimVar_j[nDim+2]=1.22498
Density=1.22498
divVel=0
viscosity=1.78934e-05
density=1.22498
turb_ke=0
stress[iDim][iDim]=0
stress[iDim][iDim]=0
PrimVar_i[nDim+2]=1.22498
PrimVar_j[nDim+2]=1.22498
Density=1.22498
divVel=0
viscosity=1.78934e-05
density=1.22498
turb_ke=0
stress[iDim][iDim]=0
stress[iDim][iDim]=0
PrimVar_i[nDim+2]=1.22498
PrimVar_j[nDim+2]=1.22498
Density=1.22498
divVel=0
viscosity=1.78934e-05
density=1.22498
turb_ke=0
stress[iDim][iDim]=0
stress[iDim][iDim]=0
PrimVar_i[nDim+2]=1.22498
PrimVar_j[nDim+2]=1.22498
Density=1.22498
divVel=0
viscosity=1.78934e-05
density=1.22498
turb_ke=0
stress[iDim][iDim]=0
stress[iDim][iDim]=0
PrimVar_i[nDim+2]=1.22498
PrimVar_j[nDim+2]=1.22498
Density=1.22498
divVel=0
viscosity=1.78934e-05
density=1.22498
turb_ke=0
stress[iDim][iDim]=0
stress[iDim][iDim]=0
PrimVar_i[nDim+2]=1.22498
PrimVar_j[nDim+2]=1.22498
Density=1.22498
divVel=0
viscosity=1.78934e-05
density=1.22498
turb_ke=0
stress[iDim][iDim]=0
stress[iDim][iDim]=0
PrimVar_i[nDim+2]=1.22498
PrimVar_j[nDim+2]=1.22498
Density=1.22498
divVel=0
viscosity=1.78934e-05
density=1.22498
turb_ke=0
stress[iDim][iDim]=0
stress[iDim][iDim]=0
PrimVar_i[nDim+2]=1.22498
PrimVar_j[nDim+2]=1.22498
Density=1.22498
divVel=0
viscosity=1.78934e-05
density=1.22498
turb_ke=0
stress[iDim][iDim]=0
stress[iDim][iDim]=0
PrimVar_i[nDim+2]=1.22498
PrimVar_j[nDim+2]=1.22498
Density=1.22498
divVel=0
viscosity=1.78934e-05
density=1.22498
turb_ke=0
stress[iDim][iDim]=0
stress[iDim][iDim]=0
PrimVar_i[nDim+2]=1.22498
PrimVar_j[nDim+2]=1.22498
Density=1.22498
divVel=0
viscosity=1.78934e-05
density=1.22498
turb_ke=0
stress[iDim][iDim]=0
stress[iDim][iDim]=0
PrimVar_i[nDim+2]=1.22498
PrimVar_j[nDim+2]=1.22498
Density=1.22498
divVel=0
viscosity=1.78934e-05
density=1.22498
turb_ke=0
stress[iDim][iDim]=0
stress[iDim][iDim]=0
PrimVar_i[nDim+2]=1.22498
PrimVar_j[nDim+2]=1.22498
Density=1.22498
divVel=0
viscosity=1.78934e-05
density=1.22498
turb_ke=0
stress[iDim][iDim]=0
stress[iDim][iDim]=0
PrimVar_i[nDim+2]=1.22498
PrimVar_j[nDim+2]=1.22498
Density=1.22498
divVel=0
viscosity=1.78934e-05
density=1.22498
turb_ke=0
stress[iDim][iDim]=0
stress[iDim][iDim]=0
PrimVar_i[nDim+2]=1.22498
PrimVar_j[nDim+2]=1.22498
Density=1.22498
divVel=0
viscosity=1.78934e-05
density=1.22498
turb_ke=0
stress[iDim][iDim]=0
stress[iDim][iDim]=0
PrimVar_i[nDim+2]=1.22498
PrimVar_j[nDim+2]=1.22498
Density=1.22498
divVel=0
viscosity=1.78934e-05
density=1.22498
turb_ke=0
stress[iDim][iDim]=0
stress[iDim][iDim]=0
PrimVar_i[nDim+2]=1.22498
PrimVar_j[nDim+2]=1.22498
Density=1.22498
divVel=0
viscosity=1.78934e-05
density=1.22498
turb_ke=0
stress[iDim][iDim]=0
stress[iDim][iDim]=0
PrimVar_i[nDim+2]=1.22498
PrimVar_j[nDim+2]=1.22498
Density=1.22498
divVel=0
viscosity=1.78934e-05
density=1.22498
turb_ke=0
stress[iDim][iDim]=0
stress[iDim][iDim]=0
PrimVar_i[nDim+2]=1.22498
PrimVar_j[nDim+2]=1.22498
Density=1.22498
divVel=0
viscosity=1.78934e-05
density=1.22498
turb_ke=0
stress[iDim][iDim]=0
stress[iDim][iDim]=0
PrimVar_i[nDim+2]=1.22498
PrimVar_j[nDim+2]=1.22498
Density=1.22498
divVel=0
viscosity=1.78934e-05
density=1.22498
turb_ke=0
stress[iDim][iDim]=0
stress[iDim][iDim]=0
PrimVar_i[nDim+2]=1.22498
PrimVar_j[nDim+2]=1.22498
Density=1.22498
divVel=0
viscosity=1.78934e-05
density=1.22498
turb_ke=0
stress[iDim][iDim]=0
stress[iDim][iDim]=0
PrimVar_i[nDim+2]=1.22498
PrimVar_j[nDim+2]=1.22498
Density=1.22498
divVel=0
viscosity=1.78934e-05
density=1.22498
turb_ke=0
stress[iDim][iDim]=0
stress[iDim][iDim]=0
PrimVar_i[nDim+2]=1.22498
PrimVar_j[nDim+2]=1.22498
Density=1.22498
divVel=0
viscosity=1.78934e-05
density=1.22498
turb_ke=0
stress[iDim][iDim]=0
stress[iDim][iDim]=0
PrimVar_i[nDim+2]=1.22498
PrimVar_j[nDim+2]=1.22498
Density=1.22498
divVel=0
viscosity=1.78934e-05
density=1.22498
turb_ke=0
stress[iDim][iDim]=0
stress[iDim][iDim]=0
PrimVar_i[nDim+2]=1.22498
PrimVar_j[nDim+2]=1.22498
Density=1.22498
divVel=0
viscosity=1.78934e-05
density=1.22498
turb_ke=0
stress[iDim][iDim]=0
stress[iDim][iDim]=0
PrimVar_i[nDim+2]=1.22498
PrimVar_j[nDim+2]=1.22498
Density=1.22498
divVel=0
viscosity=1.78934e-05
density=1.22498
turb_ke=0
stress[iDim][iDim]=0
stress[iDim][iDim]=0
PrimVar_i[nDim+2]=1.22498
PrimVar_j[nDim+2]=1.22498
Density=1.22498
divVel=0
viscosity=1.78934e-05
density=1.22498
turb_ke=0
stress[iDim][iDim]=0
stress[iDim][iDim]=0
PrimVar_i[nDim+2]=1.22498
PrimVar_j[nDim+2]=1.22498
Density=1.22498
divVel=0
viscosity=1.78934e-05
density=1.22498
turb_ke=0
stress[iDim][iDim]=0
stress[iDim][iDim]=0
PrimVar_i[nDim+2]=1.22498
PrimVar_j[nDim+2]=1.22498
Density=1.22498
divVel=0
viscosity=1.78934e-05
density=1.22498
turb_ke=0
stress[iDim][iDim]=0
stress[iDim][iDim]=0
PrimVar_i[nDim+2]=1.22498
PrimVar_j[nDim+2]=1.22498
Density=1.22498
divVel=0
viscosity=1.78934e-05
density=1.22498
turb_ke=0
stress[iDim][iDim]=0
stress[iDim][iDim]=0
PrimVar_i[nDim+2]=1.22498
PrimVar_j[nDim+2]=1.22498
Density=1.22498
divVel=0
viscosity=1.78934e-05
density=1.22498
turb_ke=0
stress[iDim][iDim]=0
stress[iDim][iDim]=0
PrimVar_i[nDim+2]=1.22498
PrimVar_j[nDim+2]=1.22498
Density=1.22498
divVel=0
viscosity=1.78934e-05
density=1.22498
turb_ke=0
stress[iDim][iDim]=0
stress[iDim][iDim]=0
PrimVar_i[nDim+2]=1.22498
PrimVar_j[nDim+2]=1.22498
Density=1.22498
divVel=0
viscosity=1.78934e-05
density=1.22498
turb_ke=0
stress[iDim][iDim]=0
stress[iDim][iDim]=0
PrimVar_i[nDim+2]=1.22498
PrimVar_j[nDim+2]=1.22498
Density=1.22498
divVel=0
viscosity=1.78934e-05
density=1.22498
turb_ke=0
stress[iDim][iDim]=0
stress[iDim][iDim]=0
PrimVar_i[nDim+2]=1.22498
PrimVar_j[nDim+2]=1.22498
Density=1.22498
divVel=0
viscosity=1.78934e-05
density=1.22498
turb_ke=0
stress[iDim][iDim]=0
stress[iDim][iDim]=0
PrimVar_i[nDim+2]=1.22498
PrimVar_j[nDim+2]=1.22498
Density=1.22498
divVel=0
viscosity=1.78934e-05
density=1.22498
turb_ke=0
stress[iDim][iDim]=0
stress[iDim][iDim]=0
PrimVar_i[nDim+2]=1.22498
PrimVar_j[nDim+2]=1.22498
Density=1.22498
divVel=0
viscosity=1.78934e-05
density=1.22498
turb_ke=0
stress[iDim][iDim]=0
stress[iDim][iDim]=0
PrimVar_i[nDim+2]=1.22498
PrimVar_j[nDim+2]=1.22498
Density=1.22498
divVel=0
viscosity=1.78934e-05
density=1.22498
turb_ke=0
stress[iDim][iDim]=0
stress[iDim][iDim]=0
PrimVar_i[nDim+2]=1.22498
PrimVar_j[nDim+2]=1.22498
Density=1.22498
divVel=0
viscosity=1.78934e-05
density=1.22498
turb_ke=0
stress[iDim][iDim]=0
stress[iDim][iDim]=0
PrimVar_i[nDim+2]=1.22498
PrimVar_j[nDim+2]=1.22498
Density=1.22498
divVel=0
viscosity=1.78934e-05
density=1.22498
turb_ke=0
stress[iDim][iDim]=0
stress[iDim][iDim]=0
PrimVar_i[nDim+2]=1.22498
PrimVar_j[nDim+2]=1.22498
Density=1.22498
divVel=0
viscosity=1.78934e-05
density=1.22498
turb_ke=0
stress[iDim][iDim]=0
stress[iDim][iDim]=0
PrimVar_i[nDim+2]=1.22498
PrimVar_j[nDim+2]=1.22498
Density=1.22498
divVel=0
viscosity=1.78934e-05
density=1.22498
turb_ke=0
stress[iDim][iDim]=0
stress[iDim][iDim]=0
PrimVar_i[nDim+2]=1.22498
PrimVar_j[nDim+2]=1.22498
Density=1.22498
divVel=0
viscosity=1.78934e-05
density=1.22498
turb_ke=0
stress[iDim][iDim]=0
stress[iDim][iDim]=0
PrimVar_i[nDim+2]=1.22498
PrimVar_j[nDim+2]=1.22498
Density=1.22498
divVel=0
viscosity=1.78934e-05
density=1.22498
turb_ke=0
stress[iDim][iDim]=0
stress[iDim][iDim]=0
PrimVar_i[nDim+2]=1.22498
PrimVar_j[nDim+2]=1.22498
Density=1.22498
divVel=0
viscosity=1.78934e-05
density=1.22498
turb_ke=0
stress[iDim][iDim]=0
stress[iDim][iDim]=0
PrimVar_i[nDim+2]=1.22498
PrimVar_j[nDim+2]=1.22498
Density=1.22498
divVel=0
viscosity=1.78934e-05
density=1.22498
turb_ke=0
stress[iDim][iDim]=0
stress[iDim][iDim]=0
PrimVar_i[nDim+2]=1.22498
PrimVar_j[nDim+2]=1.22498
Density=1.22498
divVel=0
viscosity=1.78934e-05
density=1.22498
turb_ke=0
stress[iDim][iDim]=0
stress[iDim][iDim]=0
PrimVar_i[nDim+2]=1.22498
PrimVar_j[nDim+2]=1.22498
Density=1.22498
divVel=0
viscosity=1.78934e-05
density=1.22498
turb_ke=0
stress[iDim][iDim]=0
stress[iDim][iDim]=0
PrimVar_i[nDim+2]=1.22498
PrimVar_j[nDim+2]=1.22498
Density=1.22498
divVel=0
viscosity=1.78934e-05
density=1.22498
turb_ke=0
stress[iDim][iDim]=0
stress[iDim][iDim]=0
PrimVar_i[nDim+2]=1.22498
PrimVar_j[nDim+2]=1.22498
Density=1.22498
divVel=0
viscosity=1.78934e-05
density=1.22498
turb_ke=0
stress[iDim][iDim]=0
stress[iDim][iDim]=0
PrimVar_i[nDim+2]=1.22498
PrimVar_j[nDim+2]=1.22498
Density=1.22498
divVel=0
viscosity=1.78934e-05
density=1.22498
turb_ke=0
stress[iDim][iDim]=0
stress[iDim][iDim]=0
PrimVar_i[nDim+2]=1.22498
PrimVar_j[nDim+2]=1.22498
Density=1.22498
divVel=0
viscosity=1.78934e-05
density=1.22498
turb_ke=0
stress[iDim][iDim]=0
stress[iDim][iDim]=0
PrimVar_i[nDim+2]=1.22498
PrimVar_j[nDim+2]=1.22498
Density=1.22498
divVel=0
viscosity=1.78934e-05
density=1.22498
turb_ke=0
stress[iDim][iDim]=0
stress[iDim][iDim]=0
PrimVar_i[nDim+2]=1.22498
PrimVar_j[nDim+2]=1.22498
Density=1.22498
divVel=0
viscosity=1.78934e-05
density=1.22498
turb_ke=0
stress[iDim][iDim]=0
stress[iDim][iDim]=0
PrimVar_i[nDim+2]=1.22498
PrimVar_j[nDim+2]=1.22498
Density=1.22498
divVel=0
viscosity=1.78934e-05
density=1.22498
turb_ke=0
stress[iDim][iDim]=0
stress[iDim][iDim]=0
PrimVar_i[nDim+2]=1.22498
PrimVar_j[nDim+2]=1.22498
Density=1.22498
divVel=0
viscosity=1.78934e-05
density=1.22498
turb_ke=0
stress[iDim][iDim]=0
stress[iDim][iDim]=0
PrimVar_i[nDim+2]=1.22498
PrimVar_j[nDim+2]=1.22498
Density=1.22498
divVel=0
viscosity=1.78934e-05
density=1.22498
turb_ke=0
stress[iDim][iDim]=0
stress[iDim][iDim]=0
PrimVar_i[nDim+2]=1.22498
PrimVar_j[nDim+2]=1.22498
Density=1.22498
divVel=0
viscosity=1.78934e-05
density=1.22498
turb_ke=0
stress[iDim][iDim]=0
stress[iDim][iDim]=0
PrimVar_i[nDim+2]=1.22498
PrimVar_j[nDim+2]=1.22498
Density=1.22498
divVel=0
viscosity=1.78934e-05
density=1.22498
turb_ke=0
stress[iDim][iDim]=0
stress[iDim][iDim]=0
PrimVar_i[nDim+2]=1.22498
PrimVar_j[nDim+2]=1.22498
Density=1.22498
divVel=0
viscosity=1.78934e-05
density=1.22498
turb_ke=0
stress[iDim][iDim]=0
stress[iDim][iDim]=0
PrimVar_i[nDim+2]=1.22498
PrimVar_j[nDim+2]=1.22498
Density=1.22498
divVel=0
viscosity=1.78934e-05
density=1.22498
turb_ke=0
stress[iDim][iDim]=0
stress[iDim][iDim]=0
PrimVar_i[nDim+2]=1.22498
PrimVar_j[nDim+2]=1.22498
Density=1.22498
divVel=0
viscosity=1.78934e-05
density=1.22498
turb_ke=0
stress[iDim][iDim]=0
stress[iDim][iDim]=0
PrimVar_i[nDim+2]=1.22498
PrimVar_j[nDim+2]=1.22498
Density=1.22498
divVel=0
viscosity=1.78934e-05
density=1.22498
turb_ke=0
stress[iDim][iDim]=0
stress[iDim][iDim]=0
PrimVar_i[nDim+2]=1.22498
PrimVar_j[nDim+2]=1.22498
Density=1.22498
divVel=0
viscosity=1.78934e-05
density=1.22498
turb_ke=0
stress[iDim][iDim]=0
stress[iDim][iDim]=0
PrimVar_i[nDim+2]=1.22498
PrimVar_j[nDim+2]=1.22498
Density=1.22498
divVel=0
viscosity=1.78934e-05
density=1.22498
turb_ke=0
stress[iDim][iDim]=0
stress[iDim][iDim]=0
PrimVar_i[nDim+2]=1.22498
PrimVar_j[nDim+2]=1.22498
Density=1.22498
divVel=0
viscosity=1.78934e-05
density=1.22498
turb_ke=0
stress[iDim][iDim]=0
stress[iDim][iDim]=0
PrimVar_i[nDim+2]=1.22498
PrimVar_j[nDim+2]=1.22498
Density=1.22498
divVel=0
viscosity=1.78934e-05
density=1.22498
turb_ke=0
stress[iDim][iDim]=0
stress[iDim][iDim]=0
PrimVar_i[nDim+2]=1.22498
PrimVar_j[nDim+2]=1.22498
Density=1.22498
divVel=0
viscosity=1.78934e-05
density=1.22498
turb_ke=0
stress[iDim][iDim]=0
stress[iDim][iDim]=0
PrimVar_i[nDim+2]=1.22498
PrimVar_j[nDim+2]=1.22498
Density=1.22498
divVel=0
viscosity=1.78934e-05
density=1.22498
turb_ke=0
stress[iDim][iDim]=0
stress[iDim][iDim]=0
PrimVar_i[nDim+2]=1.22498
PrimVar_j[nDim+2]=1.22498
Density=1.22498
divVel=0
viscosity=1.78934e-05
density=1.22498
turb_ke=0
stress[iDim][iDim]=0
stress[iDim][iDim]=0
PrimVar_i[nDim+2]=1.22498
PrimVar_j[nDim+2]=1.22498
Density=1.22498
divVel=0
viscosity=1.78934e-05
density=1.22498
turb_ke=0
stress[iDim][iDim]=0
stress[iDim][iDim]=0
PrimVar_i[nDim+2]=1.22498
PrimVar_j[nDim+2]=1.22498
Density=1.22498
divVel=0
viscosity=1.78934e-05
density=1.22498
turb_ke=0
stress[iDim][iDim]=0
stress[iDim][iDim]=0
PrimVar_i[nDim+2]=1.22498
PrimVar_j[nDim+2]=1.22498
Density=1.22498
divVel=0
viscosity=1.78934e-05
density=1.22498
turb_ke=0
stress[iDim][iDim]=0
stress[iDim][iDim]=0
PrimVar_i[nDim+2]=1.22498
PrimVar_j[nDim+2]=1.22498
Density=1.22498
divVel=0
viscosity=1.78934e-05
density=1.22498
turb_ke=0
stress[iDim][iDim]=0
stress[iDim][iDim]=0
PrimVar_i[nDim+2]=1.22498
PrimVar_j[nDim+2]=1.22498
Density=1.22498
divVel=0
viscosity=1.78934e-05
density=1.22498
turb_ke=0
stress[iDim][iDim]=0
stress[iDim][iDim]=0
PrimVar_i[nDim+2]=1.22498
PrimVar_j[nDim+2]=1.22498
Density=1.22498
divVel=0
viscosity=1.78934e-05
density=1.22498
turb_ke=0
stress[iDim][iDim]=0
stress[iDim][iDim]=0
PrimVar_i[nDim+2]=1.22498
PrimVar_j[nDim+2]=1.22498
Density=1.22498
divVel=0
viscosity=1.78934e-05
density=1.22498
turb_ke=0
stress[iDim][iDim]=0
stress[iDim][iDim]=0
PrimVar_i[nDim+2]=1.22498
PrimVar_j[nDim+2]=1.22498
Density=1.22498
divVel=0
viscosity=1.78934e-05
density=1.22498
turb_ke=0
stress[iDim][iDim]=0
stress[iDim][iDim]=0
PrimVar_i[nDim+2]=1.22498
PrimVar_j[nDim+2]=1.22498
Density=1.22498
divVel=0
viscosity=1.78934e-05
density=1.22498
turb_ke=0
stress[iDim][iDim]=0
stress[iDim][iDim]=0
PrimVar_i[nDim+2]=1.22498
PrimVar_j[nDim+2]=1.22498
Density=1.22498
divVel=0
viscosity=1.78934e-05
density=1.22498
turb_ke=0
stress[iDim][iDim]=0
stress[iDim][iDim]=0
PrimVar_i[nDim+2]=1.22498
PrimVar_j[nDim+2]=1.22498
Density=1.22498
divVel=0
viscosity=1.78934e-05
density=1.22498
turb_ke=0
stress[iDim][iDim]=0
stress[iDim][iDim]=0
PrimVar_i[nDim+2]=1.22498
PrimVar_j[nDim+2]=1.22498
Density=1.22498
divVel=0
viscosity=1.78934e-05
density=1.22498
turb_ke=0
stress[iDim][iDim]=0
stress[iDim][iDim]=0
PrimVar_i[nDim+2]=1.22498
PrimVar_j[nDim+2]=1.22498
Density=1.22498
divVel=0
viscosity=1.78934e-05
density=1.22498
turb_ke=0
stress[iDim][iDim]=0
stress[iDim][iDim]=0
PrimVar_i[nDim+2]=1.22498
PrimVar_j[nDim+2]=1.22498
Density=1.22498
divVel=0
viscosity=1.78934e-05
density=1.22498
turb_ke=0
stress[iDim][iDim]=0
stress[iDim][iDim]=0
PrimVar_i[nDim+2]=1.22498
PrimVar_j[nDim+2]=1.22498
Density=1.22498
divVel=0
viscosity=1.78934e-05
density=1.22498
turb_ke=0
stress[iDim][iDim]=0
stress[iDim][iDim]=0
PrimVar_i[nDim+2]=1.22498
PrimVar_j[nDim+2]=1.22498
Density=1.22498
divVel=0
viscosity=1.78934e-05
density=1.22498
turb_ke=0
stress[iDim][iDim]=0
stress[iDim][iDim]=0
PrimVar_i[nDim+2]=1.22498
PrimVar_j[nDim+2]=1.22498
Density=1.22498
divVel=0
viscosity=1.78934e-05
density=1.22498
turb_ke=0
stress[iDim][iDim]=0
stress[iDim][iDim]=0
PrimVar_i[nDim+2]=1.22498
PrimVar_j[nDim+2]=1.22498
Density=1.22498
divVel=0
viscosity=1.78934e-05
density=1.22498
turb_ke=0
stress[iDim][iDim]=0
stress[iDim][iDim]=0
PrimVar_i[nDim+2]=1.22498
PrimVar_j[nDim+2]=1.22498
Density=1.22498
divVel=0
viscosity=1.78934e-05
density=1.22498
turb_ke=0
stress[iDim][iDim]=0
stress[iDim][iDim]=0
PrimVar_i[nDim+2]=1.22498
PrimVar_j[nDim+2]=1.22498
Density=1.22498
divVel=0
viscosity=1.78934e-05
density=1.22498
turb_ke=0
stress[iDim][iDim]=0
stress[iDim][iDim]=0
PrimVar_i[nDim+2]=1.22498
PrimVar_j[nDim+2]=1.22498
Density=1.22498
divVel=0
viscosity=1.78934e-05
density=1.22498
turb_ke=0
stress[iDim][iDim]=0
stress[iDim][iDim]=0
PrimVar_i[nDim+2]=1.22498
PrimVar_j[nDim+2]=1.22498
Density=1.22498
divVel=0
viscosity=1.78934e-05
density=1.22498
turb_ke=0
stress[iDim][iDim]=0
stress[iDim][iDim]=0
PrimVar_i[nDim+2]=1.22498
PrimVar_j[nDim+2]=1.22498
Density=1.22498
divVel=0
viscosity=1.78934e-05
density=1.22498
turb_ke=0
stress[iDim][iDim]=0
stress[iDim][iDim]=0
PrimVar_i[nDim+2]=1.22498
PrimVar_j[nDim+2]=1.22498
Density=1.22498
divVel=0
viscosity=1.78934e-05
density=1.22498
turb_ke=0
stress[iDim][iDim]=0
stress[iDim][iDim]=0
PrimVar_i[nDim+2]=1.22498
PrimVar_j[nDim+2]=1.22498
Density=1.22498
divVel=0
viscosity=1.78934e-05
density=1.22498
turb_ke=0
stress[iDim][iDim]=0
stress[iDim][iDim]=0
PrimVar_i[nDim+2]=1.22498
PrimVar_j[nDim+2]=1.22498
Density=1.22498
divVel=0
viscosity=1.78934e-05
density=1.22498
turb_ke=0
stress[iDim][iDim]=0
stress[iDim][iDim]=0
PrimVar_i[nDim+2]=1.22498
PrimVar_j[nDim+2]=1.22498
Density=1.22498
divVel=0
viscosity=1.78934e-05
density=1.22498
turb_ke=0
stress[iDim][iDim]=0
stress[iDim][iDim]=0
PrimVar_i[nDim+2]=1.22498
PrimVar_j[nDim+2]=1.22498
Density=1.22498
divVel=0
viscosity=1.78934e-05
density=1.22498
turb_ke=0
stress[iDim][iDim]=0
stress[iDim][iDim]=0
PrimVar_i[nDim+2]=1.22498
PrimVar_j[nDim+2]=1.22498
Density=1.22498
divVel=0
viscosity=1.78934e-05
density=1.22498
turb_ke=0
stress[iDim][iDim]=0
stress[iDim][iDim]=0
PrimVar_i[nDim+2]=1.22498
PrimVar_j[nDim+2]=1.22498
Density=1.22498
divVel=0
viscosity=1.78934e-05
density=1.22498
turb_ke=0
stress[iDim][iDim]=0
stress[iDim][iDim]=0
PrimVar_i[nDim+2]=1.22498
PrimVar_j[nDim+2]=1.22498
Density=1.22498
divVel=0
viscosity=1.78934e-05
density=1.22498
turb_ke=0
stress[iDim][iDim]=0
stress[iDim][iDim]=0
PrimVar_i[nDim+2]=1.22498
PrimVar_j[nDim+2]=1.22498
Density=1.22498
divVel=0
viscosity=1.78934e-05
density=1.22498
turb_ke=0
stress[iDim][iDim]=0
stress[iDim][iDim]=0
PrimVar_i[nDim+2]=1.22498
PrimVar_j[nDim+2]=1.22498
Density=1.22498
divVel=0
viscosity=1.78934e-05
density=1.22498
turb_ke=0
stress[iDim][iDim]=0
stress[iDim][iDim]=0
PrimVar_i[nDim+2]=1.22498
PrimVar_j[nDim+2]=1.22498
Density=1.22498
divVel=0
viscosity=1.78934e-05
density=1.22498
turb_ke=0
stress[iDim][iDim]=0
stress[iDim][iDim]=0
PrimVar_i[nDim+2]=1.22498
PrimVar_j[nDim+2]=1.22498
Density=1.22498
divVel=0
viscosity=1.78934e-05
density=1.22498
turb_ke=0
stress[iDim][iDim]=0
stress[iDim][iDim]=0
PrimVar_i[nDim+2]=1.22498
PrimVar_j[nDim+2]=1.22498
Density=1.22498
divVel=0
viscosity=1.78934e-05
density=1.22498
turb_ke=0
stress[iDim][iDim]=0
stress[iDim][iDim]=0
PrimVar_i[nDim+2]=1.22498
PrimVar_j[nDim+2]=1.22498
Density=1.22498
divVel=0
viscosity=1.78934e-05
density=1.22498
turb_ke=0
stress[iDim][iDim]=0
stress[iDim][iDim]=0
PrimVar_i[nDim+2]=1.22498
PrimVar_j[nDim+2]=1.22498
Density=1.22498
divVel=0
viscosity=1.78934e-05
density=1.22498
turb_ke=0
stress[iDim][iDim]=0
stress[iDim][iDim]=0
PrimVar_i[nDim+2]=1.22498
PrimVar_j[nDim+2]=1.22498
Density=1.22498
divVel=0
viscosity=1.78934e-05
density=1.22498
turb_ke=0
stress[iDim][iDim]=0
stress[iDim][iDim]=0
PrimVar_i[nDim+2]=1.22498
PrimVar_j[nDim+2]=1.22498
Density=1.22498
divVel=0
viscosity=1.78934e-05
density=1.22498
turb_ke=0
stress[iDim][iDim]=0
stress[iDim][iDim]=0
PrimVar_i[nDim+2]=1.22498
PrimVar_j[nDim+2]=1.22498
Density=1.22498
divVel=0
viscosity=1.78934e-05
density=1.22498
turb_ke=0
stress[iDim][iDim]=0
stress[iDim][iDim]=0
PrimVar_i[nDim+2]=1.22498
PrimVar_j[nDim+2]=1.22498
Density=1.22498
divVel=0
viscosity=1.78934e-05
density=1.22498
turb_ke=0
stress[iDim][iDim]=0
stress[iDim][iDim]=0
PrimVar_i[nDim+2]=1.22498
PrimVar_j[nDim+2]=1.22498
Density=1.22498
divVel=0
viscosity=1.78934e-05
density=1.22498
turb_ke=0
stress[iDim][iDim]=0
stress[iDim][iDim]=0
PrimVar_i[nDim+2]=1.22498
PrimVar_j[nDim+2]=1.22498
Density=1.22498
divVel=0
viscosity=1.78934e-05
density=1.22498
turb_ke=0
stress[iDim][iDim]=0
stress[iDim][iDim]=0
PrimVar_i[nDim+2]=1.22498
PrimVar_j[nDim+2]=1.22498
Density=1.22498
divVel=0
viscosity=1.78934e-05
density=1.22498
turb_ke=0
stress[iDim][iDim]=0
stress[iDim][iDim]=0
PrimVar_i[nDim+2]=1.22498
PrimVar_j[nDim+2]=1.22498
Density=1.22498
divVel=0
viscosity=1.78934e-05
density=1.22498
turb_ke=0
stress[iDim][iDim]=0
stress[iDim][iDim]=0
PrimVar_i[nDim+2]=1.22498
PrimVar_j[nDim+2]=1.22498
Density=1.22498
divVel=0
viscosity=1.78934e-05
density=1.22498
turb_ke=0
stress[iDim][iDim]=0
stress[iDim][iDim]=0
PrimVar_i[nDim+2]=1.22498
PrimVar_j[nDim+2]=1.22498
Density=1.22498
divVel=0
viscosity=1.78934e-05
density=1.22498
turb_ke=0
stress[iDim][iDim]=0
stress[iDim][iDim]=0
PrimVar_i[nDim+2]=1.22498
PrimVar_j[nDim+2]=1.22498
Density=1.22498
divVel=0
viscosity=1.78934e-05
density=1.22498
turb_ke=0
stress[iDim][iDim]=0
stress[iDim][iDim]=0
PrimVar_i[nDim+2]=1.22498
PrimVar_j[nDim+2]=1.22498
Density=1.22498
divVel=0
viscosity=1.78934e-05
density=1.22498
turb_ke=0
stress[iDim][iDim]=0
stress[iDim][iDim]=0
PrimVar_i[nDim+2]=1.22498
PrimVar_j[nDim+2]=1.22498
Density=1.22498
divVel=0
viscosity=1.78934e-05
density=1.22498
turb_ke=0
stress[iDim][iDim]=0
stress[iDim][iDim]=0
PrimVar_i[nDim+2]=1.22498
PrimVar_j[nDim+2]=1.22498
Density=1.22498
divVel=0
viscosity=1.78934e-05
density=1.22498
turb_ke=0
stress[iDim][iDim]=0
stress[iDim][iDim]=0
PrimVar_i[nDim+2]=1.22498
PrimVar_j[nDim+2]=1.22498
Density=1.22498
divVel=0
viscosity=1.78934e-05
density=1.22498
turb_ke=0
stress[iDim][iDim]=0
stress[iDim][iDim]=0
PrimVar_i[nDim+2]=1.22498
PrimVar_j[nDim+2]=1.22498
Density=1.22498
divVel=0
viscosity=1.78934e-05
density=1.22498
turb_ke=0
stress[iDim][iDim]=0
stress[iDim][iDim]=0
PrimVar_i[nDim+2]=1.22498
PrimVar_j[nDim+2]=1.22498
Density=1.22498
divVel=0
viscosity=1.78934e-05
density=1.22498
turb_ke=0
stress[iDim][iDim]=0
stress[iDim][iDim]=0
PrimVar_i[nDim+2]=1.22498
PrimVar_j[nDim+2]=1.22498
Density=1.22498
divVel=0
viscosity=1.78934e-05
density=1.22498
turb_ke=0
stress[iDim][iDim]=0
stress[iDim][iDim]=0
PrimVar_i[nDim+2]=1.22498
PrimVar_j[nDim+2]=1.22498
Density=1.22498
divVel=0
viscosity=1.78934e-05
density=1.22498
turb_ke=0
stress[iDim][iDim]=0
stress[iDim][iDim]=0
PrimVar_i[nDim+2]=1.22498
PrimVar_j[nDim+2]=1.22498
Density=1.22498
divVel=0
viscosity=1.78934e-05
density=1.22498
turb_ke=0
stress[iDim][iDim]=0
stress[iDim][iDim]=0
PrimVar_i[nDim+2]=1.22498
PrimVar_j[nDim+2]=1.22498
Density=1.22498
divVel=0
viscosity=1.78934e-05
density=1.22498
turb_ke=0
stress[iDim][iDim]=0
stress[iDim][iDim]=0
PrimVar_i[nDim+2]=1.22498
PrimVar_j[nDim+2]=1.22498
Density=1.22498
divVel=0
viscosity=1.78934e-05
density=1.22498
turb_ke=0
stress[iDim][iDim]=0
stress[iDim][iDim]=0
PrimVar_i[nDim+2]=1.22498
PrimVar_j[nDim+2]=1.22498
Density=1.22498
divVel=0
viscosity=1.78934e-05
density=1.22498
turb_ke=0
stress[iDim][iDim]=0
stress[iDim][iDim]=0
PrimVar_i[nDim+2]=1.22498
PrimVar_j[nDim+2]=1.22498
Density=1.22498
divVel=0
viscosity=1.78934e-05
density=1.22498
turb_ke=0
stress[iDim][iDim]=0
stress[iDim][iDim]=0
PrimVar_i[nDim+2]=1.22498
PrimVar_j[nDim+2]=1.22498
Density=1.22498
divVel=0
viscosity=1.78934e-05
density=1.22498
turb_ke=0
stress[iDim][iDim]=0
stress[iDim][iDim]=0
PrimVar_i[nDim+2]=1.22498
PrimVar_j[nDim+2]=1.22498
Density=1.22498
divVel=0
viscosity=1.78934e-05
density=1.22498
turb_ke=0
stress[iDim][iDim]=0
stress[iDim][iDim]=0
PrimVar_i[nDim+2]=1.22498
PrimVar_j[nDim+2]=1.22498
Density=1.22498
divVel=0
viscosity=1.78934e-05
density=1.22498
turb_ke=0
stress[iDim][iDim]=0
stress[iDim][iDim]=0
PrimVar_i[nDim+2]=1.22498
PrimVar_j[nDim+2]=1.22498
Density=1.22498
divVel=0
viscosity=1.78934e-05
density=1.22498
turb_ke=0
stress[iDim][iDim]=0
stress[iDim][iDim]=0
PrimVar_i[nDim+2]=1.22498
PrimVar_j[nDim+2]=1.22498
Density=1.22498
divVel=0
viscosity=1.78934e-05
density=1.22498
turb_ke=0
stress[iDim][iDim]=0
stress[iDim][iDim]=0
PrimVar_i[nDim+2]=1.22498
PrimVar_j[nDim+2]=1.22498
Density=1.22498
divVel=0
viscosity=1.78934e-05
density=1.22498
turb_ke=0
stress[iDim][iDim]=0
stress[iDim][iDim]=0
PrimVar_i[nDim+2]=1.22498
PrimVar_j[nDim+2]=1.22498
Density=1.22498
divVel=0
viscosity=1.78934e-05
density=1.22498
turb_ke=0
stress[iDim][iDim]=0
stress[iDim][iDim]=0
PrimVar_i[nDim+2]=1.22498
PrimVar_j[nDim+2]=1.22498
Density=1.22498
divVel=0
viscosity=1.78934e-05
density=1.22498
turb_ke=0
stress[iDim][iDim]=0
stress[iDim][iDim]=0
PrimVar_i[nDim+2]=1.22498
PrimVar_j[nDim+2]=1.22498
Density=1.22498
divVel=0
viscosity=1.78934e-05
density=1.22498
turb_ke=0
stress[iDim][iDim]=0
stress[iDim][iDim]=0
PrimVar_i[nDim+2]=1.22498
PrimVar_j[nDim+2]=1.22498
Density=1.22498
divVel=0
viscosity=1.78934e-05
density=1.22498
turb_ke=0
stress[iDim][iDim]=0
stress[iDim][iDim]=0
PrimVar_i[nDim+2]=1.22498
PrimVar_j[nDim+2]=1.22498
Density=1.22498
divVel=0
viscosity=1.78934e-05
density=1.22498
turb_ke=0
stress[iDim][iDim]=0
stress[iDim][iDim]=0
PrimVar_i[nDim+2]=1.22498
PrimVar_j[nDim+2]=1.22498
Density=1.22498
divVel=0
viscosity=1.78934e-05
density=1.22498
turb_ke=0
stress[iDim][iDim]=0
stress[iDim][iDim]=0
PrimVar_i[nDim+2]=1.22498
PrimVar_j[nDim+2]=1.22498
Density=1.22498
divVel=0
viscosity=1.78934e-05
density=1.22498
turb_ke=0
stress[iDim][iDim]=0
stress[iDim][iDim]=0
PrimVar_i[nDim+2]=1.22498
PrimVar_j[nDim+2]=1.22498
Density=1.22498
divVel=0
viscosity=1.78934e-05
density=1.22498
turb_ke=0
stress[iDim][iDim]=0
stress[iDim][iDim]=0
PrimVar_i[nDim+2]=1.22498
PrimVar_j[nDim+2]=1.22498
Density=1.22498
divVel=0
viscosity=1.78934e-05
density=1.22498
turb_ke=0
stress[iDim][iDim]=0
stress[iDim][iDim]=0
PrimVar_i[nDim+2]=1.22498
PrimVar_j[nDim+2]=1.22498
Density=1.22498
divVel=0
viscosity=1.78934e-05
density=1.22498
turb_ke=0
stress[iDim][iDim]=0
stress[iDim][iDim]=0
PrimVar_i[nDim+2]=1.22498
PrimVar_j[nDim+2]=1.22498
Density=1.22498
divVel=0
viscosity=1.78934e-05
density=1.22498
turb_ke=0
stress[iDim][iDim]=0
stress[iDim][iDim]=0
PrimVar_i[nDim+2]=1.22498
PrimVar_j[nDim+2]=1.22498
Density=1.22498
divVel=0
viscosity=1.78934e-05
density=1.22498
turb_ke=0
stress[iDim][iDim]=0
stress[iDim][iDim]=0
PrimVar_i[nDim+2]=1.22498
PrimVar_j[nDim+2]=1.22498
Density=1.22498
divVel=0
viscosity=1.78934e-05
density=1.22498
turb_ke=0
stress[iDim][iDim]=0
stress[iDim][iDim]=0
PrimVar_i[nDim+2]=1.22498
PrimVar_j[nDim+2]=1.22498
Density=1.22498
divVel=0
viscosity=1.78934e-05
density=1.22498
turb_ke=0
stress[iDim][iDim]=0
stress[iDim][iDim]=0
PrimVar_i[nDim+2]=1.22498
PrimVar_j[nDim+2]=1.22498
Density=1.22498
divVel=0
viscosity=1.78934e-05
density=1.22498
turb_ke=0
stress[iDim][iDim]=0
stress[iDim][iDim]=0
PrimVar_i[nDim+2]=1.22498
PrimVar_j[nDim+2]=1.22498
Density=1.22498
divVel=0
viscosity=1.78934e-05
density=1.22498
turb_ke=0
stress[iDim][iDim]=0
stress[iDim][iDim]=0
PrimVar_i[nDim+2]=1.22498
PrimVar_j[nDim+2]=1.22498
Density=1.22498
divVel=0
viscosity=1.78934e-05
density=1.22498
turb_ke=0
stress[iDim][iDim]=0
stress[iDim][iDim]=0
PrimVar_i[nDim+2]=1.22498
PrimVar_j[nDim+2]=1.22498
Density=1.22498
divVel=0
viscosity=1.78934e-05
density=1.22498
turb_ke=0
stress[iDim][iDim]=0
stress[iDim][iDim]=0
PrimVar_i[nDim+2]=1.22498
PrimVar_j[nDim+2]=1.22498
Density=1.22498
divVel=0
viscosity=1.78934e-05
density=1.22498
turb_ke=0
stress[iDim][iDim]=0
stress[iDim][iDim]=0
PrimVar_i[nDim+2]=1.22498
PrimVar_j[nDim+2]=1.22498
Density=1.22498
divVel=0
viscosity=1.78934e-05
density=1.22498
turb_ke=0
stress[iDim][iDim]=0
stress[iDim][iDim]=0
PrimVar_i[nDim+2]=1.22498
PrimVar_j[nDim+2]=1.22498
Density=1.22498
divVel=0
viscosity=1.78934e-05
density=1.22498
turb_ke=0
stress[iDim][iDim]=0
stress[iDim][iDim]=0
PrimVar_i[nDim+2]=1.22498
PrimVar_j[nDim+2]=1.22498
Density=1.22498
divVel=0
viscosity=1.78934e-05
density=1.22498
turb_ke=0
stress[iDim][iDim]=0
stress[iDim][iDim]=0
PrimVar_i[nDim+2]=1.22498
PrimVar_j[nDim+2]=1.22498
Density=1.22498
divVel=0
viscosity=1.78934e-05
density=1.22498
turb_ke=0
stress[iDim][iDim]=0
stress[iDim][iDim]=0
iPoint=105 Gamma_Bound =1.39911
Gamma_Infty =1.39911
plus Gamma=0
minus Gamma=0
average Gamma=1.39911
infty Gamma=1.39911
Entropy=1.31094e-05
SoundSpeed=340.189
Gamma=1.39911
Gamma_Minus_One=0.399108
farfield Density=1.22498
V_domain[nDim+2]=1.22498
V_infty[nDim+2]=1.22498
PrimVar_i[nDim+2]=1.22498
PrimVar_j[nDim+2]=1.22498
Density=1.22498
divVel=0
viscosity=1.78934e-05
density=1.22498
turb_ke=0
stress[iDim][iDim]=0
stress[iDim][iDim]=0
residual=0
residual=0
residual=0
residual=0
