%%%%%%%%%%%%%%%%%%%%%%%%%%%%%%%%%%%%%%%%%%%%%%%%%%%%%%%%%%%%%%%%%%%%%%%%%%%%%%%%
%                                                                              %
% SU2 configuration file                                                       %
% case description:                                                            %
%   This is a test for the new implementation to prevent                       %
%   self-intersecting meshes                                                   %
%   after mesh deformation. You can run the test by first running SU2_CFD      %
%   and then SU2_DEF                                                           %
%   documentation: Lennaert Tol, Automatic Design Optimization of a Bunsen     %
%   Burner, MSc. Thesis Technische Universiteit Eindhoven (2020)               %
%   https://pure.tue.nl/ws/portalfiles/portal/165889356/0894988_Tol.pdf        %
%   the new keywords are on line 374-397                                       %
% Author:                                                                      %
%   Lennaert Tol and Nijso Beishuizen                                          %
% Institution:                                                                 %
%   Technische Universiteit Eindhoven                                          %
% Date: 2021.01.08                                                             %
% File Version 8.0.0 "Harrier"                                                 %
%%%%%%%%%%%%%%%%%%%%%%%%%%%%%%%%%%%%%%%%%%%%%%%%%%%%%%%%%%%%%%%%%%%%%%%%%%%%%%%%

% ------------- DIRECT, ADJOINT, AND LINEARIZED PROBLEM DEFINITION ------------%
%
SOLVER = INC_NAVIER_STOKES
KIND_TURB_MODEL= NONE
MATH_PROBLEM= DIRECT
RESTART_SOL = NO
AXISYMMETRIC = NO

% ---------------- INCOMPRESSIBLE FLOW CONDITION DEFINITION -------------------%
%
INC_DENSITY_MODEL= CONSTANT
INC_ENERGY_EQUATION = NO
INC_DENSITY_INIT= 1.1728
INC_VELOCITY_INIT= (1.0, 0.0, 0.0 )
INC_TEMPERATURE_INIT= 300.0
INC_INLET_TYPE= VELOCITY_INLET
INC_INLET_DAMPING= 0.1
INC_OUTLET_TYPE= PRESSURE_OUTLET
INC_OUTLET_DAMPING= 0.1
INC_NONDIM= DIMENSIONAL

% ---- IDEAL GAS, POLYTROPIC, VAN DER WAALS AND PENG ROBINSON CONSTANTS -------%
%
FLUID_MODEL= CONSTANT_DENSITY
SPECIFIC_HEAT_CP= 1004.703

% --------------------------- VISCOSITY MODEL ---------------------------------%
%
VISCOSITY_MODEL= CONSTANT_VISCOSITY
MU_CONSTANT= 1.83463e-05

% --------------------------- THERMAL CONDUCTIVITY MODEL ----------------------%
%
CONDUCTIVITY_MODEL= CONSTANT_PRANDTL
PRANDTL_LAM= 0.72
PRANDTL_TURB= 0.90

% ---------------------- REFERENCE VALUE DEFINITION ---------------------------%
%
REF_ORIGIN_MOMENT_X = 0.00
REF_ORIGIN_MOMENT_Y = 0.00
REF_ORIGIN_MOMENT_Z = 0.00
REF_LENGTH= 1.0
REF_AREA= 0.0

% -------------------- BOUNDARY CONDITION DEFINITION --------------------------%
%
MARKER_PLOTTING = (outlet)
MARKER_ANALYZE = (outlet)
MARKER_HEATFLUX= (wall_inner_bottom, 0.0, wall_inner_right, 0.0, wall_inner_top, 0.0)
SPECIFIED_INLET_PROFILE= NO
INLET_FILENAME = inletVelocity.dat
INLET_MATCHING_TOLERANCE= 1e-5
MARKER_INLET = (inlet, 300.0, 1.0, 1.0, 0.0, 0.0)
MARKER_OUTLET = (outlet, 0.0)
MARKER_SYM = (wall_outer)
MARKER_MONITORING= (outlet)

% ------------- COMMON PARAMETERS DEFINING THE NUMERICAL METHOD ---------------%
%
NUM_METHOD_GRAD= GREEN_GAUSS
CFL_NUMBER=100
CFL_ADAPT= NO
CFL_ADAPT_PARAM= ( 1.5, 0.5, 1.0, 100.0 )
RK_ALPHA_COEFF= ( 0.66667, 0.66667, 1.000000 )
ITER = 10000
OUTPUT_WRT_FREQ= 50

% ------------------------ LINEAR SOLVER DEFINITION ---------------------------%
%
LINEAR_SOLVER= FGMRES
LINEAR_SOLVER_PREC= ILU
LINEAR_SOLVER_ERROR= 1E-10
LINEAR_SOLVER_ITER= 100

% -------------------- FLOW NUMERICAL METHOD DEFINITION -----------------------%
%
CONV_NUM_METHOD_FLOW= FDS
MUSCL_FLOW= NO
SLOPE_LIMITER_FLOW= NONE
VENKAT_LIMITER_COEFF= 10.0
JST_SENSOR_COEFF= ( 0.05, 0.02 )
TIME_DISCRE_FLOW= EULER_IMPLICIT
CONV_NUM_METHOD_ADJFLOW= FDS
ADJ_JST_SENSOR_COEFF= ( 0.05, 0.02 )
CFL_REDUCTION_ADJFLOW= 0.5
TIME_DISCRE_ADJFLOW= EULER_IMPLICIT

% --------------------------- CONVERGENCE PARAMETERS --------------------------%
%
CONV_RESIDUAL_MINVAL= -10
CONV_STARTITER= 100
CONV_CAUCHY_ELEMS= 20
CONV_CAUCHY_EPS= 1E-6
SCREEN_OUTPUT = INNER_ITER WALL_TIME RMS_PRESSURE RMS_VELOCITY-X RMS_ADJ_PRESSURE RMS_ADJ_VELOCITY-X U
CONV_FIELD = (RMS_PRESSURE, RMS_ADJ_PRESSURE)

% ------------------------- INPUT/OUTPUT INFORMATION --------------------------%
%
MESH_FORMAT= SU2
SOLUTION_FILENAME= solution_flow.dat
SOLUTION_ADJ_FILENAME= solution_adj.dat
OUTPUT_FILES = (RESTART, PARAVIEW_ASCII, SURFACE_CSV) 
TABULAR_FORMAT = CSV
CONV_FILENAME= history
RESTART_FILENAME= restart_flow.dat
RESTART_ADJ_FILENAME= restart_adj.dat
VOLUME_FILENAME= flow
VOLUME_ADJ_FILENAME= adjoint
GRAD_OBJFUNC_FILENAME= of_grad.dat
SURFACE_FILENAME= surface_flow
SURFACE_ADJ_FILENAME= surface_adjoint
VOLUME_OUTPUT= RESIDUAL PRIMITIVE SOURCE SENSITIVITY COEFFICIENT
SCREEN_WRT_FREQ_INNER = 1
SCREEN_WRT_FREQ_OUTER = 1

% ----------------------- DESIGN VARIABLE PARAMETERS --------------------------%
%
DV_KIND= FFD_CONTROL_POINT_2D, FFD_CONTROL_POINT_2D, FFD_CONTROL_POINT_2D, FFD_CONTROL_POINT_2D, FFD_CONTROL_POINT_2D, FFD_CONTROL_POINT_2D, FFD_CONTROL_POINT_2D, FFD_CONTROL_POINT_2D, FFD_CONTROL_POINT_2D, FFD_CONTROL_POINT_2D, FFD_CONTROL_POINT_2D, FFD_CONTROL_POINT_2D, FFD_CONTROL_POINT_2D, FFD_CONTROL_POINT_2D, FFD_CONTROL_POINT_2D, FFD_CONTROL_POINT_2D, FFD_CONTROL_POINT_2D, FFD_CONTROL_POINT
MESH_FILENAME = mesh_ffd.su2
MESH_OUT_FILENAME= mesh_ffd_deformed.su2
DV_MARKER= (wall_inner_bottom, wall_inner_right, wall_inner_top)
DV_PARAM= (MAIN_BOX, 0, 0, 0.0, 1.0); (MAIN_BOX, 1, 0, 0.0, 1.0); (MAIN_BOX, 2, 0, 0.0, 1.0); (MAIN_BOX, 3, 0, 0.0, 1.0); (MAIN_BOX, 4, 0, 0.0, 1.0); (MAIN_BOX, 5, 0, 0.0, 1.0); (MAIN_BOX, 6, 0, 0.0, 1.0); (MAIN_BOX, 7, 0, 0.0, 1.0); (MAIN_BOX, 8, 0, 0.0, 1.0); (MAIN_BOX, 9, 0, 0.0, 1.0); (MAIN_BOX, 10, 0, 0.0, 1.0); (MAIN_BOX, 0, 1, 0.0, 1.0); (MAIN_BOX, 1, 1, 0.0, 1.0); (MAIN_BOX, 2, 1, 0.0, 1.0
DV_VALUE = 0, 0.0002, 0.0004, 0.0006, 0.0008, 0.001, 0.0012, 0.0014, 0.0016, 0.0018, 0.002, 0,-0.0002, -0.0004, -0.0006, -0.0008, -0.0010, -0.0012, -0.0014, -0.0016, -0.0018, -0.002

% ------------------------ GRID DEFORMATION PARAMETERS ------------------------%
%
DEFORM_LINEAR_SOLVER= FGMRES
DEFORM_LINEAR_SOLVER_ITER= 1000
DEFORM_NONLINEAR_ITER= 1
DEFORM_CONSOLE_OUTPUT= YES
DEFORM_LINEAR_SOLVER_ERROR = 1e-5
DEFORM_STIFFNESS_TYPE= WALL_DISTANCE

% -------------------- FREE-FORM DEFORMATION PARAMETERS -----------------------%
%
FFD_TOLERANCE= 1E-10
FFD_ITERATIONS= 500

% ----- CHECK AND REPAIR MESH INTERSECTION ------------------------- %
%
% Parameters to check and repair self-intersections within FFD box 
% (after deformation)
%
% switch on the intersection prevention
FFD_INTPREV = YES
% number of deformation iterations to make sure that the self-intersection has been resolved
FFD_INTPREV_ITER = 2
% number of times we half the deformation size within the iteration 
FFD_INTPREV_DEPTH= 3

% ----- CHECK AND REPAIR NONCONVEX CELLS  ------------------------- %
%
% Parameters to check and repair nonconvex elements in mesh 
% (after deformation)
%
% switch on the check for convexity of cells
CONVEXITY_CHECK = YES
% number of iterations 
CONVEXITY_CHECK_ITER = 10
% number of times we half the deformation size within the iteration
CONVEXITY_CHECK_DEPTH = 3
% -------------------------------------------------------------------------- %

FFD_DEFINITION= (MAIN_BOX, 0.02, 0.005, 0,   0.05, 0.005, 0.0,   0.05, 0.007, 0.0,   0.02, 0.007, 0.0,   0.0, 0.0, 0.0, 0.0, 0.0, 0.0, 0.0, 0.0, 0.0, 0.0, 0.0, 0.0)
FFD_DEGREE= ( 10, 1, 0)
FFD_CONTINUITY= USER_INPUT
OPT_OBJECTIVE= DRAG*5.0e-3
OPT_CONSTRAINT= NONE
OPT_GRADIENT_FACTOR= 1.0
OPT_RELAX_FACTOR= 1.0
OPT_ITERATIONS= 20
OPT_ACCURACY= 1E-200
OPT_LINE_SEARCH_BOUND= 1E6
OPT_BOUND_UPPER =  1e10
OPT_BOUND_LOWER = -1e10
FIN_DIFF_STEP = 1e-3
DEFINITION_DV= (19, 1.0 | wall_inner_bottom, wall_inner_right, wall_inner_top | MAIN_BOX, 0, 0, 0.0, 1.0); (19, 1.0 | wall_inner_bottom, wall_inner_right, wall_inner_top | MAIN_BOX, 1, 0, 0.0, 1.0); (19, 1.0 | wall_inner_bottom, wall_inner_right, wall_inner_top | MAIN_BOX, 2, 0, 0.0, 1.0); (19, 1.0 | wall_inner_bottom, wall_inner_right, wall_inner_top | MAIN_BOX, 3, 0, 0.0, 1.0); (19, 1.0 | wall_i
