%%%%%%%%%%%%%%%%%%%%%%%%%%%%%%%%%%%%%%%%%%%%%%%%%%%%%%%%%%%%%%%%%%%%%%%%%%%%%%%%
%                                                                              %
% SU2 configuration file                                                       %
% Case description: zone 2: fluid zone                                         %
%                                                                              %
%%%%%%%%%%%%%%%%%%%%%%%%%%%%%%%%%%%%%%%%%%%%%%%%%%%%%%%%%%%%%%%%%%%%%%%%%%%%%%%%
%
% ------------- DIRECT, ADJOINT, AND LINEARIZED PROBLEM DEFINITION ------------%
%
SOLVER= INC_RANS
KIND_TURB_MODEL= SST
%
% -------------------- BOUNDARY CONDITION DEFINITION --------------------------%
%
MARKER_HEATFLUX= ( wall2, 0.0 )
MARKER_SYM= ( axis2 )
SPECIFIED_INLET_PROFILE= NO
INLET_FILENAME= inlet_venturi.dat
INC_INLET_TYPE=  VELOCITY_INLET
MARKER_INLET= ( air_axial_inlet2, 310.0, 1.2, 0.0  -1.0, 0.0 )
MARKER_INLET_SPECIES= (air_axial_inlet2, 0.6, 0.0 )	
INC_OUTLET_TYPE= PRESSURE_OUTLET
MARKER_OUTLET= ( outlet2, 0.0 )
MARKER_PLOTTING= (NONE)
MARKER_MONITORING= (NONE)
%
% ---------------- INCOMPRESSIBLE FLOW CONDITION DEFINITION -------------------%
%
INC_DENSITY_MODEL= VARIABLE 
INC_DENSITY_INIT= 1.2
INC_VELOCITY_INIT= ( 1.0, 0.0, 0.0 )
INC_ENERGY_EQUATION= YES
INC_TEMPERATURE_INIT= 300.0
INC_NONDIM= DIMENSIONAL   
%
% -------------------- FLUID PROPERTIES ------------------------------------- %
%
FLUID_MODEL= FLUID_MIXTURE   
MOLECULAR_WEIGHT= (28.96, 25.0, 20.0)
SPECIFIC_HEAT_CP= (1009.0, 880.0, 800.0)
CONDUCTIVITY_MODEL= CONSTANT_CONDUCTIVITY
THERMAL_CONDUCTIVITY_CONSTANT= (0.036, 0.032 0.03)
TURBULENT_CONDUCTIVITY_MODEL= NONE
PRANDTL_TURB= 0.90, 0.90, 0.90
VISCOSITY_MODEL= CONSTANT_VISCOSITY
MU_CONSTANT=  (1.716E-5, 1.82e-5, 1.85e-5)
MIXING_VISCOSITY_MODEL= WILKE
