%%%%%%%%%%%%%%%%%%%%%%%%%%%%%%%%%%%%%%%%%%%%%%%%%%%%%%%%%%%%%%%%%%%%%%%%%%%%%%%%
%                                                                              %
% SU2 configuration file                                                       %
% Case description: Laminar premixed flame stabilized on isothermal burner     %
%                   with cold wall (hx) downstream of the flame (adjoint run)  %
%                                                                              %
% Author a: Daniel Mayer                                                       %
% Institution a: Robert Bosch LLC                                              %
%                                                                              %
% Author b: Nijso Beishuizen                                                   %
% Institution b: Bosch Thermotechnology                                        %
%                                                                              %
% Date: 02/21/2023                                                             %
% File Version 7.5.1 "Blackbird"                                               %
%                                                                              %
%%%%%%%%%%%%%%%%%%%%%%%%%%%%%%%%%%%%%%%%%%%%%%%%%%%%%%%%%%%%%%%%%%%%%%%%%%%%%%%%

% ------------- DIRECT, ADJOINT, AND LINEARIZED PROBLEM DEFINITION ------------%
%
SOLVER= INC_NAVIER_STOKES
KIND_TURB_MODEL= NONE
%
OBJECTIVE_FUNCTION= SURFACE_SCALAR_03
OBJECTIVE_WEIGHT= 1.0
%
% ---------------- INCOMPRESSIBLE FLOW CONDITION DEFINITION -------------------%
%
INC_DENSITY_MODEL= VARIABLE
INC_DENSITY_INIT= 1.1766
INC_VELOCITY_INIT= ( 0.2, 0, 0 )
INC_ENERGY_EQUATION= YES
INC_TEMPERATURE_INIT= 300.0
INC_NONDIM= DIMENSIONAL
%
% -------------------- FLUID PROPERTIES ------------------------------------- %
%
FLUID_MODEL= FLUID_FLAMELET
FILENAME_LUT= fgm_ch4.drg
CONDUCTIVITY_MODEL= FLAMELET
DIFFUSIVITY_MODEL= FLAMELET
KIND_SCALAR_MODEL= FLAMELET
VISCOSITY_MODEL= FLAMELET
%
FLAME_OFFSET= 0.0035 0 0
FLAME_THICKNESS= 5.0e-4
FLAME_BURNT_THICKNESS= 1
FLAME_NORMAL= 3 2 0
%
% -------------------- BOUNDARY CONDITION DEFINITION --------------------------%
%
MARKER_ISOTHERMAL= ( wall_burner, 450,   wall_hx, 900 )
MARKER_SYM= ( axis, symmetry_xm, symmetry_xp )
%
INC_INLET_TYPE=  VELOCITY_INLET
MARKER_INLET= (inlet, 300.0, 0.20,    1.0, 0.0, 0.0)
MARKER_INLET_SPECIES= (inlet, 0.0, 0.0, 0.0, 0.0, 0.0, 0.0, 0.0)
SPECIES_USE_STRONG_BC= YES
%
INC_OUTLET_TYPE= PRESSURE_OUTLET
MARKER_OUTLET= ( outlet, 0.0 )
%
% ------------- COMMON PARAMETERS DEFINING THE NUMERICAL METHOD ---------------%
%
NUM_METHOD_GRAD= WEIGHTED_LEAST_SQUARES
CFL_NUMBER= 100
CFL_REDUCTION_SPECIES= 1.0
ITER= 11
%
% ------------------------ LINEAR SOLVER DEFINITION ---------------------------%
%
LINEAR_SOLVER= FGMRES
LINEAR_SOLVER_PREC= ILU
LINEAR_SOLVER_ERROR= 1E-03
LINEAR_SOLVER_ITER= 10
%
% -------------------- FLOW NUMERICAL METHOD DEFINITION -----------------------%
%
CONV_NUM_METHOD_FLOW= FDS
MUSCL_FLOW= NO
SLOPE_LIMITER_FLOW= NONE
TIME_DISCRE_FLOW= EULER_IMPLICIT
%
% -------------------- SCALAR TRANSPORT ---------------------------------------%
%
USER_SCALAR_NAMES= (Y-CO, Y-NOx_tot)

USER_SOURCE_NAMES= ( \
    ProdRatePos_Y-CO,  ProdRateNegScaled_Y-CO  ,\
    ProdRateTot_Y-NOx, zero)

DIFFUSIVITY_CONSTANT= 0.00001
%
CONV_NUM_METHOD_SPECIES= BOUNDED_SCALAR
MUSCL_SPECIES= NO
SLOPE_LIMITER_SPECIES= NONE
%
TIME_DISCRE_SPECIES= EULER_IMPLICIT
%
SPECIES_INIT= (0, 0, 0, 0, 0, 0, 0)
SPECIES_CLIPPING= NO
LOOKUP_NAMES= (MolarWeightMix, Conductivity, HeatRelease, Diffusivity, \
    ProdRatePos_Y-CO,  ProdRateNegScaled_Y-CO  ,\
    ProdRateTot_Y-NOx)

%
% --------------------------- CONVERGENCE PARAMETERS --------------------------%
%
CONV_FIELD= RMS_PRESSURE, RMS_VELOCITY-X, RMS_VELOCITY-Y
CONV_RESIDUAL_MINVAL= -18
CONV_STARTITER= 10
%
% ------------------------- INPUT/OUTPUT INFORMATION --------------------------%
%
MESH_FILENAME= mesh_unstructured_hx.su2
%
SCREEN_OUTPUT= INNER_ITER WALL_TIME RMS_ADJ_PRESSURE RMS_ADJ_VELOCITY-X RMS_ADJ_VELOCITY-Y RMS_ADJ_SPECIES_0 RMS_ADJ_SPECIES_1 RMS_ADJ_SPECIES_2 RMS_ADJ_SPECIES_3
SCREEN_WRT_FREQ_INNER= 1
%
HISTORY_OUTPUT= ITER RMS_RES LINSOL FLOW_COEFF_SURF FLAMELET_COEFF_SURF
CONV_FILENAME= history
MARKER_ANALYZE= outlet
MARKER_ANALYZE_AVERAGE= MASSFLUX
%
%OUTPUT_FILES= RESTART, PARAVIEW, PARAVIEW_MULTIBLOCK
OUTPUT_FILES= RESTART_ASCII
VOLUME_OUTPUT= RESIDUAL, PRIMITIVE
VOLUME_ADJ_FILENAME= ch4_flame_hx_ad

OUTPUT_WRT_FREQ= 100
%
GRAD_OBJFUNC_FILENAME= of_grad.csv
%
RESTART_SOL= YES
READ_BINARY_RESTART= YES
RESTART_FILENAME= restart
RESTART_ADJ_FILENAME= restart_adj
SOLUTION_FILENAME= solution
SOLUTION_ADJ_FILENAME= solution_adj.dat
%
WRT_PERFORMANCE= YES
OUTPUT_PRECISION= 16