%%%%%%%%%%%%%%%%%%%%%%%%%%%%%%%%%%%%%%%%%%%%%%%%%%%%%%%%%%%%%%%%%%%%%%%%%%%%%%%%
%                                                                              %
% SU2 configuration file                                                       %
% Case description: Laminar premixed flame stabilized on isothermal burner     %
%                   with cold wall (hx) downstream of the flame (adjoint run)  %
%                                                                              %
% Author a: Daniel Mayer                                                       %
% Institution a: Robert Bosch LLC                                              %
%                                                                              %
% Author b: Nijso Beishuizen                                                   %
% Institution b: Bosch Thermotechnology                                        %
%                                                                              %
% Date: 02/21/2023                                                             %
% File Version 8.0.0 "Harrier"                                                 %
%                                                                              %
%%%%%%%%%%%%%%%%%%%%%%%%%%%%%%%%%%%%%%%%%%%%%%%%%%%%%%%%%%%%%%%%%%%%%%%%%%%%%%%%

% ------------- DIRECT, ADJOINT, AND LINEARIZED PROBLEM DEFINITION ------------%
%
SOLVER= INC_NAVIER_STOKES
KIND_TURB_MODEL= NONE
%
OBJECTIVE_FUNCTION= CUSTOM_OBJFUNC
OBJECTIVE_WEIGHT= 1.0
CUSTOM_OBJFUNC= avg_NOx
CUSTOM_OUTPUTS= 'avg_NOx : MassFlowAvg{SPECIES[3]}[outlet]'

%
% ---------------- INCOMPRESSIBLE FLOW CONDITION DEFINITION -------------------%
%
INC_DENSITY_MODEL= FLAMELET
INC_DENSITY_INIT= 1.1766
INC_VELOCITY_INIT= ( 0.2, 0, 0 )
INC_ENERGY_EQUATION= YES
INC_TEMPERATURE_INIT= 300.0
INC_NONDIM= DIMENSIONAL
%
% -------------------- FLUID PROPERTIES ------------------------------------- %
%
FLUID_MODEL= FLUID_FLAMELET
FILENAMES_INTERPOLATOR= (fgm_ch4.drg)
CONTROLLING_VARIABLE_NAMES= (ProgressVariable, EnthalpyTot)
CONTROLLING_VARIABLE_SOURCE_NAMES= (ProdRateTot_PV, NULL)
CONDUCTIVITY_MODEL= FLAMELET
DIFFUSIVITY_MODEL= FLAMELET
KIND_SCALAR_MODEL= FLAMELET
VISCOSITY_MODEL= FLAMELET
%
FLAME_INIT= (0.0035, 0, 0, 3, 2, 0, 5.0e-4, 1.0)
%
% -------------------- BOUNDARY CONDITION DEFINITION --------------------------%
%
MARKER_ISOTHERMAL= ( wall_burner, 450, wall_hx, 900 )
MARKER_SYM= ( axis, symmetry_xm, symmetry_xp, outlet )
%
INC_INLET_TYPE=  VELOCITY_INLET
MARKER_INLET= (inlet, 300.0, 0.20, 1.0, 0.0, 0.0)
MARKER_INLET_SPECIES= (inlet, 0.0, 0.0, 0.0, 0.0)
MARKER_SPECIES_STRONG_BC= (inlet, wall_burner, wall_hx)
%
% INC_OUTLET_TYPE= PRESSURE_OUTLET
% MARKER_OUTLET= ( outlet, 0.0 )
%
% ------------- COMMON PARAMETERS DEFINING THE NUMERICAL METHOD ---------------%
%
NUM_METHOD_GRAD= WEIGHTED_LEAST_SQUARES
CFL_NUMBER= 100
CFL_REDUCTION_SPECIES= 1.0
ITER= 11
%
% ------------------------ LINEAR SOLVER DEFINITION ---------------------------%
%
LINEAR_SOLVER= FGMRES
LINEAR_SOLVER_PREC= ILU
LINEAR_SOLVER_ERROR= 1E-03
LINEAR_SOLVER_ITER= 10
%
% -------------------- FLOW NUMERICAL METHOD DEFINITION -----------------------%
%
CONV_NUM_METHOD_FLOW= FDS
MUSCL_FLOW= NO
SLOPE_LIMITER_FLOW= NONE
TIME_DISCRE_FLOW= EULER_IMPLICIT
%
% -------------------- SCALAR TRANSPORT ---------------------------------------%
%
USER_SCALAR_NAMES= (Y-CO, Y-NOx_tot)

USER_SOURCE_NAMES= ( \
    ProdRatePos_Y-CO,  ProdRateNegScaled_Y-CO  ,\
    ProdRateTot_Y-NOx, zero)

DIFFUSIVITY_CONSTANT= 0.00001
%
CONV_NUM_METHOD_SPECIES= BOUNDED_SCALAR
MUSCL_SPECIES= NO
SLOPE_LIMITER_SPECIES= NONE
%
TIME_DISCRE_SPECIES= EULER_IMPLICIT
%
SPECIES_INIT= (0, 0, 0, 0)
SPECIES_CLIPPING= NO
LOOKUP_NAMES= (MolarWeightMix, Conductivity, HeatRelease, Diffusivity, \
    ProdRatePos_Y-CO,  ProdRateNegScaled_Y-CO  ,\
    ProdRateTot_Y-NOx)

%
% --------------------------- CONVERGENCE PARAMETERS --------------------------%
%
CONV_FIELD= RMS_PRESSURE, RMS_VELOCITY-X, RMS_VELOCITY-Y
CONV_RESIDUAL_MINVAL= -18
CONV_STARTITER= 10
%
% ------------------------- INPUT/OUTPUT INFORMATION --------------------------%
%
MESH_FILENAME= mesh_unstructured_hx.su2
%
SCREEN_OUTPUT= INNER_ITER WALL_TIME RMS_ADJ_PRESSURE RMS_ADJ_VELOCITY-X RMS_ADJ_VELOCITY-Y RMS_ADJ_ProgressVariable RMS_ADJ_EnthalpyTot RMS_ADJ_Y-NOx_tot RMS_ADJ_Y-CO
SCREEN_WRT_FREQ_INNER= 1
%
HISTORY_OUTPUT= ITER RMS_RES LINSOL FLOW_COEFF_SURF
CONV_FILENAME= history
MARKER_ANALYZE= outlet
MARKER_ANALYZE_AVERAGE= MASSFLUX
%
%OUTPUT_FILES= RESTART, PARAVIEW, PARAVIEW_MULTIBLOCK
OUTPUT_FILES= RESTART
VOLUME_OUTPUT= RESIDUAL, PRIMITIVE
VOLUME_ADJ_FILENAME= ch4_flame_hx_ad

OUTPUT_WRT_FREQ= 100
%
GRAD_OBJFUNC_FILENAME= of_grad.csv
%
RESTART_SOL= YES
READ_BINARY_RESTART= NO
RESTART_FILENAME= restart
RESTART_ADJ_FILENAME= restart_adj
SOLUTION_FILENAME= solution
SOLUTION_ADJ_FILENAME= restart_adj
%
WRT_PERFORMANCE= YES
OUTPUT_PRECISION= 16
%
% -------------------- FREE-FORM DEFORMATION PARAMETERS -----------------------%
%
% Tolerance of the Free-Form Deformation point inversion
FFD_TOLERANCE= 1E-10
%
% Maximum number of iterations in the Free-Form Deformation point inversion
FFD_ITERATIONS= 500
%
% FFD box definition: 3D case (FFD_BoxTag, X1, Y1, Z1, X2, Y2, Z2, X3, Y3, Z3, X4, Y4, Z4,
%                              X5, Y5, Z5, X6, Y6, Z6, X7, Y7, Z7, X8, Y8, Z8)
%                     2D case (FFD_BoxTag, X1, Y1, 0.0, X2, Y2, 0.0, X3, Y3, 0.0, X4, Y4, 0.0,
%                              0.0, 0.0, 0.0, 0.0, 0.0, 0.0, 0.0, 0.0, 0.0, 0.0, 0.0, 0.0)
% Start at the lowest leftest corner and turn counter-clockwise
FFD_DEFINITION= (BOX, \
0.065, 0.01, 0.0, \
0.15, 0.01, 0.0 \
0.15, 0.02, 0.0, \
0.065, 0.02, 0.0, \
0.0, 0.0 ,0.0, \
0.0 ,0.0, 0.0, \
0.0, 0.0, 0.0, \
0.0, 0.0, 0.0 )
%
% FFD box degree: 3D case (i_degree, j_degree, k_degree)
%                 2D case (i_degree, j_degree, 0)
FFD_DEGREE= (6, 1, 0)
%
% Surface grid continuity at the intersection with the faces of the FFD boxes.
% To keep a particular level of surface continuity, SU2 automatically freezes the right
% number of control point planes (NO_DERIVATIVE, 1ST_DERIVATIVE, 2ND_DERIVATIVE, USER_INPUT)
FFD_CONTINUITY= USER_INPUT
%
% Definition of the FFD planes to be frozen in the FFD (x,y,z).
% Value from 0 FFD degree in that direction. Pick a value larger than degree if you do not want to fix any plane.
%FFD_FIX_I= (0,2,3)
%FFD_FIX_J= (0,2,3)
%FFD_FIX_K= (0,2,3)

% ----------------------- DESIGN VARIABLE PARAMETERS --------------------------%
%

DV_KIND= \
FFD_CONTROL_POINT_2D,\
FFD_CONTROL_POINT_2D,\
FFD_CONTROL_POINT_2D,\
FFD_CONTROL_POINT_2D,\
FFD_CONTROL_POINT_2D,\
FFD_CONTROL_POINT_2D,\
FFD_CONTROL_POINT_2D,\
FFD_CONTROL_POINT_2D,\
FFD_CONTROL_POINT_2D,\
FFD_CONTROL_POINT_2D

%
% Marker of the surface in which we are going apply the shape deformation
% NOTE: for deformation the outlet should be a MARKER_SYM to hinder the mesh being ripped apart.
DV_MARKER= ( wall_hx )
%
% Parameters of the shape deformation
% - FFD_SETTING ( 1.0 )
% - FFD_CONTROL_POINT ( FFD_BoxTag, i_Ind, j_Ind, k_Ind, x_Disp, y_Disp, z_Disp )

DV_PARAM= (BOX, 1, 0, 0, 1.0);  \
(BOX, 2, 0, 0, 1.0);  \
(BOX, 3, 0, 0, 1.0);  \
(BOX, 4, 0, 0, 1.0);  \
(BOX, 5, 0, 0, 1.0);  \
(BOX, 1, 1, 0, 1.0);  \
(BOX, 2, 1, 0, 1.0);  \
(BOX, 3, 1, 0, 1.0);  \
(BOX, 4, 1, 0, 1.0);  \
(BOX, 5, 1, 0, 1.0)

DEFINITION_DV= ( 19, 1.0 | wall_hx | BOX, 0, 0, 1.0, 0.0 )

DV_VALUE= 0.0, 0.0, 0.0, 0.0, 0.0, 0.0, 0.0, 0.0, 0.0, 0.0 

%
% ------------------------ GRID DEFORMATION PARAMETERS ------------------------%
%
% Linear solver or smoother for implicit formulations (FGMRES, RESTARTED_FGMRES, BCGSTAB)
DEFORM_LINEAR_SOLVER= FGMRES
%
% Preconditioner of the Krylov linear solver (ILU, LU_SGS, JACOBI)
DEFORM_LINEAR_SOLVER_PREC= ILU
%
% Number of smoothing iterations for mesh deformation
DEFORM_LINEAR_SOLVER_ITER= 1000
%
% Number of nonlinear deformation iterations (surface deformation increments)
DEFORM_NONLINEAR_ITER= 1
%
% Minimum residual criteria for the linear solver convergence of grid deformation
DEFORM_LINEAR_SOLVER_ERROR= 1E-14
%
% Print the residuals during mesh deformation to the console (YES, NO)
DEFORM_CONSOLE_OUTPUT= YES
%
% Deformation coefficient (linear elasticity limits from -1.0 to 0.5, a larger
% value is also possible)
DEFORM_COEFF = 0.0
%
% Type of element stiffness imposed for FEA mesh deformation (INVERSE_VOLUME,
%                                           WALL_DISTANCE, CONSTANT_STIFFNESS)
DEFORM_STIFFNESS_TYPE= WALL_DISTANCE
%
% Deform the grid only close to the surface. It is possible to specify how much
% of the volumetric grid is going to be deformed in meters or inches (1E6 by default)
DEFORM_LIMIT = 1E6
