%%%%%%%%%%%%%%%%%%%%%%%%%%%%%%%%%%%%%%%%%%%%%%%%%%%%%%%%%%%%%%%%%%%%%%%%%%%%%%%%
%                                                                              %
% SU2 configuration file                                                       %
% Case description: 2D NACA 0012 Airfoil Validation Case (incompressible)      %
%                   http://turbmodels.larc.nasa.gov/naca0012_val_sa.html       %
% Author: Thomas D. Economon & Francisco Palacios                              %
% Date: 2018.06.10                                                             %
% File Version 8.0.0 "Harrier"                                                 %
%                                                                              %
%%%%%%%%%%%%%%%%%%%%%%%%%%%%%%%%%%%%%%%%%%%%%%%%%%%%%%%%%%%%%%%%%%%%%%%%%%%%%%%%

% ------------- DIRECT, ADJOINT, AND LINEARIZED PROBLEM DEFINITION ------------%
%
SOLVER= INC_RANS
KIND_TURB_MODEL= SA
MATH_PROBLEM= DISCRETE_ADJOINT
RESTART_SOL= NO

% -------------------- INCOMPRESSIBLE FREE-STREAM DEFINITION ------------------%
%
INC_DENSITY_INIT= 2.13163
% AoA 10 deg
INC_VELOCITY_INIT= ( 51.36481493540834, 9.0570027322096198, 0.0 )

% --------------------------- VISCOSITY MODEL ---------------------------------%
%
VISCOSITY_MODEL= CONSTANT_VISCOSITY
MU_CONSTANT= 1.853e-05

% ---------------------- REFERENCE VALUE DEFINITION ---------------------------%
%
REF_ORIGIN_MOMENT_X = 0.25
REF_ORIGIN_MOMENT_Y = 0.00
REF_ORIGIN_MOMENT_Z = 0.00
REF_LENGTH= 1.0
REF_AREA= 1.0

% -------------------- BOUNDARY CONDITION DEFINITION --------------------------%
%
MARKER_HEATFLUX= ( airfoil, 0.0 )
MARKER_FAR= ( farfield )
MARKER_PLOTTING= ( airfoil )
MARKER_MONITORING= ( airfoil )

% ------------- COMMON PARAMETERS DEFINING THE NUMERICAL METHOD ---------------%
%
NUM_METHOD_GRAD= GREEN_GAUSS
CFL_NUMBER= 25.0
CFL_ADAPT= NO
CFL_ADAPT_PARAM= ( 1.5, 0.5, 25.0, 10000.0 )
MAX_DELTA_TIME= 1E6
RK_ALPHA_COEFF= ( 0.66667, 0.66667, 1.000000 )
ITER= 99999
OBJECTIVE_FUNCTION= DRAG
OBJECTIVE_WEIGHT = 1.0

% ----------------------- SLOPE LIMITER DEFINITION ----------------------------%
%
VENKAT_LIMITER_COEFF= 0.05
ADJ_SHARP_LIMITER_COEFF= 3.0
REF_SHARP_EDGES= 3.0
SENS_REMOVE_SHARP= NO

% ------------------------ LINEAR SOLVER DEFINITION ---------------------------%
%
LINEAR_SOLVER= FGMRES
LINEAR_SOLVER_PREC= ILU
LINEAR_SOLVER_ILU_FILL_IN= 0
LINEAR_SOLVER_ERROR= 1E-10
LINEAR_SOLVER_ITER= 10

% -------------------- FLOW NUMERICAL METHOD DEFINITION -----------------------%
%
CONV_NUM_METHOD_FLOW= FDS
MUSCL_FLOW= YES
SLOPE_LIMITER_FLOW= NONE
JST_SENSOR_COEFF= ( 0.0, 0.02 )
TIME_DISCRE_FLOW= EULER_IMPLICIT

% -------------------- TURBULENT NUMERICAL METHOD DEFINITION ------------------%
%
CONV_NUM_METHOD_TURB= SCALAR_UPWIND
MUSCL_TURB= NO
SLOPE_LIMITER_TURB= VENKATAKRISHNAN
TIME_DISCRE_TURB= EULER_IMPLICIT

% ------------------------ GRID DEFORMATION PARAMETERS ------------------------%
%
DV_KIND= HICKS_HENNE
DV_MARKER= ( airfoil )
DV_PARAM= ( 1, 0.5 )
DV_VALUE= 0.01

% --------------------------- CONVERGENCE PARAMETERS --------------------------%
%
CONV_RESIDUAL_MINVAL= -14
CONV_STARTITER= 10
CONV_CAUCHY_ELEMS= 100
CONV_CAUCHY_EPS= 1E-6

% ------------------------- INPUT/OUTPUT INFORMATION --------------------------%
%
MESH_FILENAME= n0012_225-65.su2
MESH_FORMAT= SU2
MESH_OUT_FILENAME= mesh_out.su2
SOLUTION_FILENAME= solution_flow_sa.dat
SOLUTION_ADJ_FILENAME= solution_adj.dat
TABULAR_FORMAT= CSV
CONV_FILENAME= history
RESTART_FILENAME= restart_flow.dat
RESTART_ADJ_FILENAME= restart_adj.dat
VOLUME_FILENAME= flow
VOLUME_ADJ_FILENAME= adjoint
GRAD_OBJFUNC_FILENAME= of_grad.dat
SURFACE_FILENAME= surface_flow
SURFACE_ADJ_FILENAME= surface_adjoint
OUTPUT_WRT_FREQ= 250
SCREEN_OUTPUT= (INNER_ITER, RMS_ADJ_PRESSURE, RMS_ADJ_NU_TILDE, SENS_PRESS, SENS_AOA)

% --------------------- OPTIMAL SHAPE DESIGN DEFINITION -----------------------%
%
DEFINITION_DV= ( 30, 1.0 | airfoil | 0, 0.05 ); ( 30, 1.0 | airfoil | 0, 0.10 ); ( 30, 1.0 | airfoil | 0, 0.15 ); ( 30, 1.0 | airfoil | 0, 0.20 ); ( 30, 1.0 | airfoil | 0, 0.25 ); ( 30, 1.0 | airfoil | 0, 0.30 ); ( 30, 1.0 | airfoil | 0, 0.35 ); ( 30, 1.0 | airfoil | 0, 0.40 ); ( 30, 1.0 | airfoil | 0, 0.45 ); ( 30, 1.0 | airfoil | 0, 0.50 ); ( 30, 1.0 | airfoil | 0, 0.55 ); ( 30, 1.0 | airfoil | 
