% Physics -------------------------------------------------------------- %
SOLVER= EULER
KIND_TURB_MODEL= NONE

% Time settings --------------------------------------------------------- %
TIME_MARCHING= DUAL_TIME_STEPPING-2ND_ORDER

% Optimization --------------------------------------------------------- %
GRAD_OBJFUNC_FILENAME= of_grad.dat

% Compressible free-stream conditions ---------------------------------- %
MACH_NUMBER= 0.8
AOA= 5.0
INIT_OPTION= TD_CONDITIONS
FREESTREAM_OPTION= TEMPERATURE_FS
FREESTREAM_PRESSURE= 101325.0
FREESTREAM_TEMPERATURE= 273.15
REYNOLDS_LENGTH= 0.5

% Fluid properties ----------------------------------------------------- %
FLUID_MODEL= IDEAL_GAS
GAMMA_VALUE= 1.4
GAS_CONSTANT= 287.87
VISCOSITY_MODEL= CONSTANT_VISCOSITY
MU_CONSTANT= 1.716E-5

% Boundary conditions -------------------------------------------------- %
MARKER_FAR= ( farfield )
MARKER_EULER= ( leading_edge, pressure_side, suction_side)
MARKER_DEFORM_MESH= ( leading_edge, pressure_side, suction_side )
DEFORM_MESH= YES

% Post processing and monitoring --------------------------------------- %
REF_ORIGIN_MOMENT_X= -0.125
REF_ORIGIN_MOMENT_Y= 0.00
REF_ORIGIN_MOMENT_Z= 0.00
REF_LENGTH= 0.5
REF_AREA= 0.5
MARKER_PLOTTING= ( leading_edge, pressure_side, suction_side )
MARKER_MONITORING= ( leading_edge, pressure_side, suction_side )
MARKER_DESIGNING= ( leading_edge, pressure_side, suction_side )

% Common numerics settings --------------------------------------------- %
REF_DIMENSIONALIZATION= DIMENSIONAL
NUM_METHOD_GRAD= GREEN_GAUSS
CFL_NUMBER= 1000.0

% Flow numerics -------------------------------------------------------- %
CONV_NUM_METHOD_FLOW= JST
JST_SENSOR_COEFF= ( 0.5, 0.02 )
TIME_DISCRE_FLOW= EULER_IMPLICIT

% Linear solvers ------------------------------------------------------- %
LINEAR_SOLVER= BCGSTAB
LINEAR_SOLVER_PREC= ILU
LINEAR_SOLVER_ERROR= 1E-6
LINEAR_SOLVER_ITER= 25
DISCADJ_LIN_SOLVER= SMOOTHER
DISCADJ_LIN_PREC= ILU
LINEAR_SOLVER_SMOOTHER_RELAXATION= 0.7
MGLEVEL= 0
NEWTON_KRYLOV= YES
QUASI_NEWTON_NUM_SAMPLES= 999
%
DEFORM_LINEAR_SOLVER= CONJUGATE_GRADIENT
DEFORM_LINEAR_SOLVER_PREC= ILU
DEFORM_LINEAR_SOLVER_ERROR= 1e-8
DEFORM_LINEAR_SOLVER_ITER= 1000
DEFORM_STIFFNESS_TYPE= INVERSE_VOLUME
DEFORM_POISSONS_RATIO= 1e6

% Convergence criteria ------------------------------------------------- %
% interaction
BGS_RELAXATION= FIXED_PARAMETER
STAT_RELAX_PARAMETER= 1.0
% fluid
INNER_ITER= 31
CONV_STARTITER= 0
CONV_RESIDUAL_MINVAL= -7

% In\Out --------------------------------------------------------------- %
MESH_FILENAME= mesh.su2
MESH_FORMAT= SU2
%
RESTART_SOL= NO
SOLUTION_FILENAME= solution_fluid.dat
SOLUTION_ADJ_FILENAME= adjoint_fluid.dat
OUTPUT_WRT_FREQ= 1
RESTART_FILENAME= solution_fluid.dat
RESTART_ADJ_FILENAME= adjoint_fluid.dat
TABULAR_FORMAT= CSV
VOLUME_FILENAME= fluid
VOLUME_ADJ_FILENAME= adjoint_fluid
SURFACE_FILENAME= surface_fluid
SURFACE_ADJ_FILENAME= adjoint_surface_fluid
SCREEN_WRT_FREQ_INNER= 10
CONV_FILENAME= history
HISTORY_OUTPUT= ITER, RMS_RES, AERO_COEFF, TAVG_AERO_COEFF
OUTPUT_FILES= NONE
