%%%%%%%%%%%%%%%%%%%%%%%%%%%%%%%%%%%%%%%%%%%%%%%%%%%%%%%%%%%%%%%%%%%%%%%%%%%%%%%%
%                                                                              %
% SU2 configuration file                                                       %
% Case description: Test custom inlets via Python wrapper.                     %
% Author: P. Gomes                                                             %
% Date: 2nd Jun 2024                                                           %
%                                                                              %
%%%%%%%%%%%%%%%%%%%%%%%%%%%%%%%%%%%%%%%%%%%%%%%%%%%%%%%%%%%%%%%%%%%%%%%%%%%%%%%%
%
SOLVER= NAVIER_STOKES
KIND_TURB_MODEL= NONE
RESTART_SOL= NO
%
TIME_DOMAIN= YES
TIME_STEP= 0.005
TIME_MARCHING= DUAL_TIME_STEPPING-2ND_ORDER
%
SCREEN_OUTPUT= TIME_ITER, INNER_ITER, RMS_RES, LINSOL_RESIDUAL, FORCE_X, SURFACE_MASSFLOW
HISTORY_OUTPUT = ITER, RMS_RES, AERO_COEFF, FLOW_COEFF, FLOW_COEFF_SURF

% -------------------- COMPRESSIBLE FREE-STREAM DEFINITION --------------------%
%
MACH_NUMBER= 0.1
INIT_OPTION= TD_CONDITIONS
FREESTREAM_OPTION= TEMPERATURE_FS
FREESTREAM_TEMPERATURE= 297.62
REYNOLDS_NUMBER= 600
REYNOLDS_LENGTH= 0.02

% ---------------------- REFERENCE VALUE DEFINITION ---------------------------%
%
REF_ORIGIN_MOMENT_X = 0.00
REF_ORIGIN_MOMENT_Y = 0.00
REF_ORIGIN_MOMENT_Z = 0.00
REF_LENGTH= 0.02
REF_AREA= 0.02
%
FLUID_MODEL= IDEAL_GAS
GAMMA_VALUE= 1.4
GAS_CONSTANT= 287.87
VISCOSITY_MODEL= CONSTANT_VISCOSITY
MU_CONSTANT= 0.001

% -------------------- BOUNDARY CONDITION DEFINITION --------------------------%
%
MARKER_HEATFLUX= ( y_minus, 0.0 )
MARKER_SYM= ( y_plus )
%
MARKER_INLET= ( x_minus, 300.0, 100000.0, 1.0, 0.0, 0.0 )
MARKER_OUTLET= ( x_plus, 99000.0 )
%
MARKER_PLOTTING= ( y_minus )
MARKER_MONITORING= ( y_minus )
MARKER_ANALYZE= ( x_minus, x_plus )

% ------------- COMMON PARAMETERS DEFINING THE NUMERICAL METHOD ---------------%
%
NUM_METHOD_GRAD= GREEN_GAUSS
CFL_NUMBER= 1e3
CFL_ADAPT= NO
TIME_DISCRE_FLOW= EULER_IMPLICIT
%
MGLEVEL= 2
MGCYCLE= V_CYCLE
MG_PRE_SMOOTH= ( 1, 1, 1 )
MG_POST_SMOOTH= ( 0, 0, 0 )
MG_DAMP_RESTRICTION= 0.5
MG_DAMP_PROLONGATION= 0.5

% ------------------------ LINEAR SOLVER DEFINITION ---------------------------%
%
LINEAR_SOLVER= FGMRES
LINEAR_SOLVER_PREC= ILU
LINEAR_SOLVER_ERROR= 0.2
LINEAR_SOLVER_ITER= 5

% -------------------- FLOW NUMERICAL METHOD DEFINITION -----------------------%
%
CONV_NUM_METHOD_FLOW= ROE
MUSCL_FLOW= YES
SLOPE_LIMITER_FLOW= NONE

% --------------------------- CONVERGENCE PARAMETERS --------------------------%
%
INNER_ITER= 100
CONV_RESIDUAL_MINVAL= -2
CONV_FIELD= REL_RMS_DENSITY
CONV_STARTITER= 0
MAX_TIME= 0.5
TIME_ITER= 21

% ------------------------- INPUT/OUTPUT INFORMATION --------------------------%
%
MESH_FORMAT= RECTANGLE
MESH_BOX_LENGTH= (0.1, 0.01, 0)
MESH_BOX_SIZE= (65, 17, 0)

