%%%%%%%%%%%%%%%%%%%%%%%%%%%%%%%%%%%%%%%%%%%%%%%%%%%%%%%%%%%%%%%%%%%%%%%%%%%%%%%%
%                                                                              %
% SU2 configuration file                                                       %
% Case description: Incomp. turbulent flow over flat plate, wall functions     %
%                   https://turbmodels.larc.nasa.gov/flatplate_sa.html         %
% Author: Nijso Beishuizen, T. Kattmann                                        %
% Institution: Bosch Thermotechnology                                          %
% Date: 2021.09.01                                                             %
% File Version 8.0.0 "Harrier"                                                 %
%                                                                              %
%%%%%%%%%%%%%%%%%%%%%%%%%%%%%%%%%%%%%%%%%%%%%%%%%%%%%%%%%%%%%%%%%%%%%%%%%%%%%%%%
%
% ------------- DIRECT, ADJOINT, AND LINEARIZED PROBLEM DEFINITION ------------%
%
SOLVER= INC_RANS
KIND_TURB_MODEL= SST
RESTART_SOL= NO
%
% ---------------- INCOMPRESSIBLE FLOW CONDITION DEFINITION -------------------%
%
INC_DENSITY_MODEL= CONSTANT
INC_DENSITY_INIT= 1.3254
INC_ENERGY_EQUATION= YES
INC_TEMPERATURE_INIT= 300.00
INC_VELOCITY_INIT= (70, 0.0, 0.0 )
%
% --------------------------- VISCOSITY MODEL ---------------------------------%
%
VISCOSITY_MODEL= CONSTANT_VISCOSITY
MU_CONSTANT= 1.8573E-5
%
% ---------------------- REFERENCE VALUE DEFINITION ---------------------------%
%
INC_NONDIM= INITIAL_VALUES
REF_LENGTH= 1.0
REF_AREA= 2.0
%
% -------------------- BOUNDARY CONDITION DEFINITION --------------------------%
%
MARKER_HEATFLUX= ( wall, 0.0 )
MARKER_SYM= ( symmetry )
INC_INLET_TYPE= VELOCITY_INLET
MARKER_INLET= ( inlet, 302.4, 70.0, 1.0, 0.0, 0.0 )
INC_OUTLET_TYPE= PRESSURE_OUTLET PRESSURE_OUTLET
MARKER_OUTLET= ( outlet, 0.0, farfield, 0.0 )
%
% ------------------------ WALL FUNCTION DEFINITION --------------------------%
%
MARKER_WALL_FUNCTIONS= ( wall, STANDARD_WALL_FUNCTION )
WALLMODEL_KAPPA= 0.41
WALLMODEL_B= 5.5
WALLMODEL_MINYPLUS= 5.0
WALLMODEL_MAXITER= 200
WALLMODEL_RELFAC= 0.5
%
% ------------- COMMON PARAMETERS DEFINING THE NUMERICAL METHOD ---------------%
%
NUM_METHOD_GRAD= GREEN_GAUSS
CFL_NUMBER= 1e2
CFL_ADAPT= NO
ITER= 1000
%
% ------------------------ LINEAR SOLVER DEFINITION ---------------------------%
%
LINEAR_SOLVER= FGMRES
LINEAR_SOLVER_PREC= ILU
LINEAR_SOLVER_ERROR= 1e-15
LINEAR_SOLVER_ITER= 10

% -------------------- FLOW NUMERICAL METHOD DEFINITION -----------------------%
%
CONV_NUM_METHOD_FLOW= FDS
MUSCL_FLOW= YES
SLOPE_LIMITER_FLOW= NONE
TIME_DISCRE_FLOW= EULER_IMPLICIT
%
% -------------------- TURBULENT NUMERICAL METHOD DEFINITION ------------------%
%
CONV_NUM_METHOD_TURB= SCALAR_UPWIND
MUSCL_TURB= NO
SLOPE_LIMITER_TURB= NONE
TIME_DISCRE_TURB= EULER_IMPLICIT
%
% --------------------------- CONVERGENCE PARAMETERS --------------------------%
CONV_RESIDUAL_MINVAL= -17
CONV_STARTITER= 10
CONV_CAUCHY_ELEMS= 100
CONV_CAUCHY_EPS= 1E-6
%
% ------------------------- INPUT/OUTPUT INFORMATION --------------------------%
%
MESH_FILENAME= ../mesh_flatplate_140x100.su2
MESH_FORMAT= SU2
SCREEN_OUTPUT= (INNER_ITER, WALL_TIME, RMS_PRESSURE, RMS_VELOCITY-X, RMS_VELOCITY-Y, RMS_TEMPERATURE, RMS_TKE, RMS_DISSIPATION, \
                LINSOL_ITER, LINSOL_RESIDUAL, LIFT, DRAG, TOTAL_HEATFLUX)
SCREEN_WRT_FREQ_INNER= 10
HISTORY_OUTPUT= (ITER, RMS_RES, AERO_COEFF, FLOW_COEFF)
MARKER_PLOTTING= ( wall )
MARKER_MONITORING= ( wall )
OUTPUT_FILES= RESTART, PARAVIEW_MULTIBLOCK
VOLUME_OUTPUT= RESIDUAL, PRIMITIVE
OUTPUT_WRT_FREQ= 1000, 500 
