
-------------------------------------------------------------------------
|    ___ _   _ ___                                                      |
|   / __| | | |_  )   Release 7.0.8 "Blackbird"                         |
|   \__ \ |_| |/ /                                                      |
|   |___/\___//___|   Suite (Computational Fluid Dynamics Code)         |
|                                                                       |
-------------------------------------------------------------------------
| SU2 Project Website: https://su2code.github.io                        |
|                                                                       |
| The SU2 Project is maintained by the SU2 Foundation                   |
| (http://su2foundation.org)                                            |
-------------------------------------------------------------------------
| Copyright 2012-2020, SU2 Contributors                                 |
|                                                                       |
| SU2 is free software; you can redistribute it and/or                  |
| modify it under the terms of the GNU Lesser General Public            |
| License as published by the Free Software Foundation; either          |
| version 2.1 of the License, or (at your option) any later version.    |
|                                                                       |
| SU2 is distributed in the hope that it will be useful,                |
| but WITHOUT ANY WARRANTY; without even the implied warranty of        |
| MERCHANTABILITY or FITNESS FOR A PARTICULAR PURPOSE. See the GNU      |
| Lesser General Public License for more details.                       |
|                                                                       |
| You should have received a copy of the GNU Lesser General Public      |
| License along with SU2. If not, see <http://www.gnu.org/licenses/>.   |
-------------------------------------------------------------------------

Parsing config file for zone 0

----------------- Physical Case Definition ( Zone 0 ) -------------------
Compressible two-temperature thermochemical non-equilibrium Navier-Stokes equations.
Mach number: 9.
Angle of attack (AoA): 0 deg, and angle of sideslip (AoS): 0 deg.
Reynolds number: 0. Reference length 1.
No restart solution, use the values at infinity (freestream).
Dimensional simulation.
The reference area is 1 m^2.
The semi-span will be computed using the max y(3D) value.
The reference length is 1 m.
Surface(s) plotted in the output file: euler, wall1, wall2, wall3.
Input mesh file name: invwedge.su2

--------------- Space Numerical Integration ( Zone 0 ) ------------------
AUSM solver for the flow inviscid terms.
Second order integration in space, with slope limiter.
Venkatakrishnan slope-limiting method, with constant: 0.05. 
The reference element size is: 1. 
Average of gradients with correction (viscous flow terms).
Gradient for upwind reconstruction: inverse-distance weighted Least-Squares.
Gradient for viscous and source terms: inverse-distance weighted Least-Squares.

--------------- Time Numerical Integration  ( Zone 0 ) ------------------
Local time stepping (steady state simulation).
Euler explicit method for the flow equations.
No CFL adaptation.
Courant-Friedrichs-Lewy number:     0.75

------------------ Convergence Criteria  ( Zone 0 ) ---------------------
Maximum number of solver subiterations: 10000000000.
Begin convergence monitoring at iteration 10.
Residual minimum value: 1e-50.
Cauchy series min. value: 1e-10.
Number of Cauchy elements: 100.
Begin windowed time average at iteration 0.

-------------------- Output Information ( Zone 0 ) ----------------------
Writing solution files every 100 iterations.
Writing the convergence history file every 1 inner iterations.
Writing the screen convergence history every 1 inner iterations.
The tabular file format is CSV (.csv).
Convergence history file name: convergence.
Forces breakdown file name: forces_breakdown.dat.
Surface file name: soln_surface.
Volume file name: soln_volume.
Restart file name: restart_flow.dat.

------------- Config File Boundary Information ( Zone 0 ) ---------------
+-----------------------------------------------------------------------+
|                        Marker Type|                        Marker Name|
+-----------------------------------------------------------------------+
|                         Euler wall|                              Euler|
|                                   |                               Wall|
+-----------------------------------------------------------------------+
|                          Far-field|                           Farfield|
|                                   |                              Inlet|
+-----------------------------------------------------------------------+
|                    Outlet boundary|                               Exit|
+-----------------------------------------------------------------------+

-------------------- Output Preprocessing ( Zone 0 ) --------------------
Screen output fields: INNER_ITER, RMS_DENSITY_0, RMS_DENSITY_1, RMS_DENSITY_2, RMS_DENSITY_3, RMS_DENSITY_4, RMS_DENSITY_5, RMS_DENSITY_6, RMS_DENSITY_7, RMS_DENSITY_8, RMS_DENSITY_9, RMS_MOMENTUM-X, RMS_MOMENTUM-Y, RMS_ENERGY, RMS_ENERGY_VE
History output group(s): ITER, RMS_RES
Ignoring Convergence Field(s): RMS_DENSITY 
Warning: No (valid) fields chosen for convergence monitoring. Convergence monitoring inactive.
Warning: No (valid) fields chosen for time convergence monitoring. Time convergence monitoring inactive.
Volume output fields: COORDINATES, SOLUTION, PRIMITIVE, AUXILIARY

------------------- Geometry Preprocessing ( Zone 0 ) -------------------
Two dimensional problem.
21900 grid points.
21582 volume elements.
5 surface markers.
99 boundary elements in index 0 (Marker = Inlet).
218 boundary elements in index 1 (Marker = Farfield).
99 boundary elements in index 2 (Marker = Exit).
199 boundary elements in index 3 (Marker = Wall).
19 boundary elements in index 4 (Marker = Euler).
21582 quadrilaterals.
Setting point connectivity.
Renumbering points (Reverse Cuthill McKee Ordering).
Recomputing point connectivity.
Setting element connectivity.
Checking the numerical grid orientation.
There has been a re-orientation of 21582 QUADRILATERAL volume elements.
There has been a re-orientation of 317 LINE surface elements.
Identifying edges and vertices.
Computing centers of gravity.
Setting the control volume structure.
Area of the computational grid: 0.566793.
Searching for the closest normal neighbors to the surfaces.
Storing a mapping from global to local point index.
Compute the surface curvature.
Max K: 536.008. Mean K: 4.8465. Standard deviation K: 45.0184.
Checking for periodicity.
Computing mesh quality statistics for the dual control volumes.
+--------------------------------------------------------------+
|           Mesh Quality Metric|        Minimum|        Maximum|
+--------------------------------------------------------------+
|    Orthogonality Angle (deg.)|        17.0695|             90|
|     CV Face Area Aspect Ratio|        1.00678|        10.7337|
|           CV Sub-Volume Ratio|              1|        1.50679|
+--------------------------------------------------------------+
Finding max control volume width.
Wetted area = 0 m.
Area projection in the x-plane = 0 m, y-plane = 0 m.
Max. coordinate in the x-direction = -1e+10 m, y-direction = -1e+10 m.
Min. coordinate in the x-direction = 1e+10 m, y-direction = 1e+10 m.
Checking if Euler & Symmetry markers are straight/plane:
Boundary marker Euler is a single straight.
Boundary marker Wall is a single straight.
Computing wall distances.

-------------------- Solver Preprocessing ( Zone 0 ) --------------------

T=100
Tve=100
Cvtrs[0]=1038.36
Cvtrs[1]=890.41
Cvtrs[2]=779.511
Cvtrs[3]=865.298
Cvtrs[4]=742.008
Cvtrs[5]=649.592
Cvtrs[6]=798.925
Cvtrs[7]=742.088
Cvtrs[8]=692.732
Cvtrs[9]=472.308

T=110
Tve=110
Cvtrs[0]=1038.36
Cvtrs[1]=890.41
Cvtrs[2]=779.511
Cvtrs[3]=865.298
Cvtrs[4]=742.008
Cvtrs[5]=649.592
Cvtrs[6]=798.925
Cvtrs[7]=742.088
Cvtrs[8]=692.732
Cvtrs[9]=472.308

T=120
Tve=120
Cvtrs[0]=1038.36
Cvtrs[1]=890.41
Cvtrs[2]=779.511
Cvtrs[3]=865.298
Cvtrs[4]=742.008
Cvtrs[5]=649.592
Cvtrs[6]=798.925
Cvtrs[7]=742.088
Cvtrs[8]=692.732
Cvtrs[9]=472.308

T=130
Tve=130
Cvtrs[0]=1038.36
Cvtrs[1]=890.41
Cvtrs[2]=779.511
Cvtrs[3]=865.298
Cvtrs[4]=742.008
Cvtrs[5]=649.592
Cvtrs[6]=798.925
Cvtrs[7]=742.088
Cvtrs[8]=692.732
Cvtrs[9]=472.308

T=140
Tve=140
Cvtrs[0]=1038.36
Cvtrs[1]=890.41
Cvtrs[2]=779.511
Cvtrs[3]=865.298
Cvtrs[4]=742.008
Cvtrs[5]=649.592
Cvtrs[6]=798.925
Cvtrs[7]=742.088
Cvtrs[8]=692.732
Cvtrs[9]=472.308

T=150
Tve=150
Cvtrs[0]=1038.36
Cvtrs[1]=890.41
Cvtrs[2]=779.511
Cvtrs[3]=865.298
Cvtrs[4]=742.008
Cvtrs[5]=649.592
Cvtrs[6]=798.925
Cvtrs[7]=742.088
Cvtrs[8]=692.732
Cvtrs[9]=472.308

T=160
Tve=160
Cvtrs[0]=1038.36
Cvtrs[1]=890.41
Cvtrs[2]=779.511
Cvtrs[3]=865.298
Cvtrs[4]=742.008
Cvtrs[5]=649.592
Cvtrs[6]=798.925
Cvtrs[7]=742.088
Cvtrs[8]=692.732
Cvtrs[9]=472.308

T=170
Tve=170
Cvtrs[0]=1038.36
Cvtrs[1]=890.41
Cvtrs[2]=779.511
Cvtrs[3]=865.298
Cvtrs[4]=742.008
Cvtrs[5]=649.592
Cvtrs[6]=798.925
Cvtrs[7]=742.088
Cvtrs[8]=692.732
Cvtrs[9]=472.308

T=180
Tve=180
Cvtrs[0]=1038.36
Cvtrs[1]=890.41
Cvtrs[2]=779.511
Cvtrs[3]=865.298
Cvtrs[4]=742.008
Cvtrs[5]=649.592
Cvtrs[6]=798.925
Cvtrs[7]=742.088
Cvtrs[8]=692.732
Cvtrs[9]=472.308

T=190
Tve=190
Cvtrs[0]=1038.36
Cvtrs[1]=890.41
Cvtrs[2]=779.511
Cvtrs[3]=865.298
Cvtrs[4]=742.008
Cvtrs[5]=649.592
Cvtrs[6]=798.925
Cvtrs[7]=742.088
Cvtrs[8]=692.732
Cvtrs[9]=472.308

T=200
Tve=200
Cvtrs[0]=1038.36
Cvtrs[1]=890.41
Cvtrs[2]=779.511
Cvtrs[3]=865.298
Cvtrs[4]=742.008
Cvtrs[5]=649.592
Cvtrs[6]=798.925
Cvtrs[7]=742.088
Cvtrs[8]=692.732
Cvtrs[9]=472.308

T=210
Tve=210
Cvtrs[0]=1038.36
Cvtrs[1]=890.41
Cvtrs[2]=779.511
Cvtrs[3]=865.298
Cvtrs[4]=742.008
Cvtrs[5]=649.592
Cvtrs[6]=798.925
Cvtrs[7]=742.088
Cvtrs[8]=692.732
Cvtrs[9]=472.308

T=220
Tve=220
Cvtrs[0]=1038.36
Cvtrs[1]=890.41
Cvtrs[2]=779.511
Cvtrs[3]=865.298
Cvtrs[4]=742.008
Cvtrs[5]=649.592
Cvtrs[6]=798.925
Cvtrs[7]=742.088
Cvtrs[8]=692.732
Cvtrs[9]=472.308

T=230
Tve=230
Cvtrs[0]=1038.36
Cvtrs[1]=890.41
Cvtrs[2]=779.511
Cvtrs[3]=865.298
Cvtrs[4]=742.008
Cvtrs[5]=649.592
Cvtrs[6]=798.925
Cvtrs[7]=742.088
Cvtrs[8]=692.732
Cvtrs[9]=472.308

T=240
Tve=240
Cvtrs[0]=1038.36
Cvtrs[1]=890.41
Cvtrs[2]=779.511
Cvtrs[3]=865.298
Cvtrs[4]=742.008
Cvtrs[5]=649.592
Cvtrs[6]=798.925
Cvtrs[7]=742.088
Cvtrs[8]=692.732
Cvtrs[9]=472.308

T=250
Tve=250
Cvtrs[0]=1038.36
Cvtrs[1]=890.41
Cvtrs[2]=779.511
Cvtrs[3]=865.298
Cvtrs[4]=742.008
Cvtrs[5]=649.592
Cvtrs[6]=798.925
Cvtrs[7]=742.088
Cvtrs[8]=692.732
Cvtrs[9]=472.308

T=260
Tve=260
Cvtrs[0]=1038.36
Cvtrs[1]=890.41
Cvtrs[2]=779.511
Cvtrs[3]=865.298
Cvtrs[4]=742.008
Cvtrs[5]=649.592
Cvtrs[6]=798.925
Cvtrs[7]=742.088
Cvtrs[8]=692.732
Cvtrs[9]=472.308

T=270
Tve=270
Cvtrs[0]=1038.36
Cvtrs[1]=890.41
Cvtrs[2]=779.511
Cvtrs[3]=865.298
Cvtrs[4]=742.008
Cvtrs[5]=649.592
Cvtrs[6]=798.925
Cvtrs[7]=742.088
Cvtrs[8]=692.732
Cvtrs[9]=472.308

T=280
Tve=280
Cvtrs[0]=1038.36
Cvtrs[1]=890.41
Cvtrs[2]=779.511
Cvtrs[3]=865.298
Cvtrs[4]=742.008
Cvtrs[5]=649.592
Cvtrs[6]=798.925
Cvtrs[7]=742.088
Cvtrs[8]=692.732
Cvtrs[9]=472.308

T=290
Tve=290
Cvtrs[0]=1038.36
Cvtrs[1]=890.41
Cvtrs[2]=779.511
Cvtrs[3]=865.298
Cvtrs[4]=742.008
Cvtrs[5]=649.592
Cvtrs[6]=798.925
Cvtrs[7]=742.088
Cvtrs[8]=692.732
Cvtrs[9]=472.308

T=300
Tve=300
Cvtrs[0]=1038.36
Cvtrs[1]=890.41
Cvtrs[2]=779.511
Cvtrs[3]=865.298
Cvtrs[4]=742.008
Cvtrs[5]=649.592
Cvtrs[6]=798.925
Cvtrs[7]=742.088
Cvtrs[8]=692.732
Cvtrs[9]=472.308

T=310
Tve=310
Cvtrs[0]=1038.36
Cvtrs[1]=890.41
Cvtrs[2]=779.511
Cvtrs[3]=865.298
Cvtrs[4]=742.008
Cvtrs[5]=649.592
Cvtrs[6]=798.925
Cvtrs[7]=742.088
Cvtrs[8]=692.732
Cvtrs[9]=472.308

T=320
Tve=320
Cvtrs[0]=1038.36
Cvtrs[1]=890.41
Cvtrs[2]=779.511
Cvtrs[3]=865.298
Cvtrs[4]=742.008
Cvtrs[5]=649.592
Cvtrs[6]=798.925
Cvtrs[7]=742.088
Cvtrs[8]=692.732
Cvtrs[9]=472.308

T=330
Tve=330
Cvtrs[0]=1038.36
Cvtrs[1]=890.41
Cvtrs[2]=779.511
Cvtrs[3]=865.298
Cvtrs[4]=742.008
Cvtrs[5]=649.592
Cvtrs[6]=798.925
Cvtrs[7]=742.088
Cvtrs[8]=692.732
Cvtrs[9]=472.308

T=340
Tve=340
Cvtrs[0]=1038.36
Cvtrs[1]=890.41
Cvtrs[2]=779.511
Cvtrs[3]=865.298
Cvtrs[4]=742.008
Cvtrs[5]=649.592
Cvtrs[6]=798.925
Cvtrs[7]=742.088
Cvtrs[8]=692.732
Cvtrs[9]=472.308

T=350
Tve=350
Cvtrs[0]=1038.36
Cvtrs[1]=890.41
Cvtrs[2]=779.511
Cvtrs[3]=865.298
Cvtrs[4]=742.008
Cvtrs[5]=649.592
Cvtrs[6]=798.925
Cvtrs[7]=742.088
Cvtrs[8]=692.732
Cvtrs[9]=472.308

T=360
Tve=360
Cvtrs[0]=1038.36
Cvtrs[1]=890.41
Cvtrs[2]=779.511
Cvtrs[3]=865.298
Cvtrs[4]=742.008
Cvtrs[5]=649.592
Cvtrs[6]=798.925
Cvtrs[7]=742.088
Cvtrs[8]=692.732
Cvtrs[9]=472.308

T=370
Tve=370
Cvtrs[0]=1038.36
Cvtrs[1]=890.41
Cvtrs[2]=779.511
Cvtrs[3]=865.298
Cvtrs[4]=742.008
Cvtrs[5]=649.592
Cvtrs[6]=798.925
Cvtrs[7]=742.088
Cvtrs[8]=692.732
Cvtrs[9]=472.308

T=380
Tve=380
Cvtrs[0]=1038.36
Cvtrs[1]=890.41
Cvtrs[2]=779.511
Cvtrs[3]=865.298
Cvtrs[4]=742.008
Cvtrs[5]=649.592
Cvtrs[6]=798.925
Cvtrs[7]=742.088
Cvtrs[8]=692.732
Cvtrs[9]=472.308

T=390
Tve=390
Cvtrs[0]=1038.36
Cvtrs[1]=890.41
Cvtrs[2]=779.511
Cvtrs[3]=865.298
Cvtrs[4]=742.008
Cvtrs[5]=649.592
Cvtrs[6]=798.925
Cvtrs[7]=742.088
Cvtrs[8]=692.732
Cvtrs[9]=472.308

T=400
Tve=400
Cvtrs[0]=1038.36
Cvtrs[1]=890.41
Cvtrs[2]=779.511
Cvtrs[3]=865.298
Cvtrs[4]=742.008
Cvtrs[5]=649.592
Cvtrs[6]=798.925
Cvtrs[7]=742.088
Cvtrs[8]=692.732
Cvtrs[9]=472.308

T=410
Tve=410
Cvtrs[0]=1038.36
Cvtrs[1]=890.41
Cvtrs[2]=779.511
Cvtrs[3]=865.298
Cvtrs[4]=742.008
Cvtrs[5]=649.592
Cvtrs[6]=798.925
Cvtrs[7]=742.088
Cvtrs[8]=692.732
Cvtrs[9]=472.308

T=420
Tve=420
Cvtrs[0]=1038.36
Cvtrs[1]=890.41
Cvtrs[2]=779.511
Cvtrs[3]=865.298
Cvtrs[4]=742.008
Cvtrs[5]=649.592
Cvtrs[6]=798.925
Cvtrs[7]=742.088
Cvtrs[8]=692.732
Cvtrs[9]=472.308

T=430
Tve=430
Cvtrs[0]=1038.36
Cvtrs[1]=890.41
Cvtrs[2]=779.511
Cvtrs[3]=865.298
Cvtrs[4]=742.008
Cvtrs[5]=649.592
Cvtrs[6]=798.925
Cvtrs[7]=742.088
Cvtrs[8]=692.732
Cvtrs[9]=472.308

T=440
Tve=440
Cvtrs[0]=1038.36
Cvtrs[1]=890.41
Cvtrs[2]=779.511
Cvtrs[3]=865.298
Cvtrs[4]=742.008
Cvtrs[5]=649.592
Cvtrs[6]=798.925
Cvtrs[7]=742.088
Cvtrs[8]=692.732
Cvtrs[9]=472.308

T=450
Tve=450
Cvtrs[0]=1038.36
Cvtrs[1]=890.41
Cvtrs[2]=779.511
Cvtrs[3]=865.298
Cvtrs[4]=742.008
Cvtrs[5]=649.592
Cvtrs[6]=798.925
Cvtrs[7]=742.088
Cvtrs[8]=692.732
Cvtrs[9]=472.308

T=460
Tve=460
Cvtrs[0]=1038.36
Cvtrs[1]=890.41
Cvtrs[2]=779.511
Cvtrs[3]=865.298
Cvtrs[4]=742.008
Cvtrs[5]=649.592
Cvtrs[6]=798.925
Cvtrs[7]=742.088
Cvtrs[8]=692.732
Cvtrs[9]=472.308

T=470
Tve=470
Cvtrs[0]=1038.36
Cvtrs[1]=890.41
Cvtrs[2]=779.511
Cvtrs[3]=865.298
Cvtrs[4]=742.008
Cvtrs[5]=649.592
Cvtrs[6]=798.925
Cvtrs[7]=742.088
Cvtrs[8]=692.732
Cvtrs[9]=472.308

T=480
Tve=480
Cvtrs[0]=1038.36
Cvtrs[1]=890.41
Cvtrs[2]=779.511
Cvtrs[3]=865.298
Cvtrs[4]=742.008
Cvtrs[5]=649.592
Cvtrs[6]=798.925
Cvtrs[7]=742.088
Cvtrs[8]=692.732
Cvtrs[9]=472.308

T=490
Tve=490
Cvtrs[0]=1038.36
Cvtrs[1]=890.41
Cvtrs[2]=779.511
Cvtrs[3]=865.298
Cvtrs[4]=742.008
Cvtrs[5]=649.592
Cvtrs[6]=798.925
Cvtrs[7]=742.088
Cvtrs[8]=692.732
Cvtrs[9]=472.308

T=500
Tve=500
Cvtrs[0]=1038.36
Cvtrs[1]=890.41
Cvtrs[2]=779.511
Cvtrs[3]=865.298
Cvtrs[4]=742.008
Cvtrs[5]=649.592
Cvtrs[6]=798.925
Cvtrs[7]=742.088
Cvtrs[8]=692.732
Cvtrs[9]=472.308

T=510
Tve=510
Cvtrs[0]=1038.36
Cvtrs[1]=890.41
Cvtrs[2]=779.511
Cvtrs[3]=865.298
Cvtrs[4]=742.008
Cvtrs[5]=649.592
Cvtrs[6]=798.925
Cvtrs[7]=742.088
Cvtrs[8]=692.732
Cvtrs[9]=472.308

T=520
Tve=520
Cvtrs[0]=1038.36
Cvtrs[1]=890.41
Cvtrs[2]=779.511
Cvtrs[3]=865.298
Cvtrs[4]=742.008
Cvtrs[5]=649.592
Cvtrs[6]=798.925
Cvtrs[7]=742.088
Cvtrs[8]=692.732
Cvtrs[9]=472.308

T=530
Tve=530
Cvtrs[0]=1038.36
Cvtrs[1]=890.41
Cvtrs[2]=779.511
Cvtrs[3]=865.298
Cvtrs[4]=742.008
Cvtrs[5]=649.592
Cvtrs[6]=798.925
Cvtrs[7]=742.088
Cvtrs[8]=692.732
Cvtrs[9]=472.308

T=540
Tve=540
Cvtrs[0]=1038.36
Cvtrs[1]=890.41
Cvtrs[2]=779.511
Cvtrs[3]=865.298
Cvtrs[4]=742.008
Cvtrs[5]=649.592
Cvtrs[6]=798.925
Cvtrs[7]=742.088
Cvtrs[8]=692.732
Cvtrs[9]=472.308

T=550
Tve=550
Cvtrs[0]=1038.36
Cvtrs[1]=890.41
Cvtrs[2]=779.511
Cvtrs[3]=865.298
Cvtrs[4]=742.008
Cvtrs[5]=649.592
Cvtrs[6]=798.925
Cvtrs[7]=742.088
Cvtrs[8]=692.732
Cvtrs[9]=472.308

T=560
Tve=560
Cvtrs[0]=1038.36
Cvtrs[1]=890.41
Cvtrs[2]=779.511
Cvtrs[3]=865.298
Cvtrs[4]=742.008
Cvtrs[5]=649.592
Cvtrs[6]=798.925
Cvtrs[7]=742.088
Cvtrs[8]=692.732
Cvtrs[9]=472.308

T=570
Tve=570
Cvtrs[0]=1038.36
Cvtrs[1]=890.41
Cvtrs[2]=779.511
Cvtrs[3]=865.298
Cvtrs[4]=742.008
Cvtrs[5]=649.592
Cvtrs[6]=798.925
Cvtrs[7]=742.088
Cvtrs[8]=692.732
Cvtrs[9]=472.308

T=580
Tve=580
Cvtrs[0]=1038.36
Cvtrs[1]=890.41
Cvtrs[2]=779.511
Cvtrs[3]=865.298
Cvtrs[4]=742.008
Cvtrs[5]=649.592
Cvtrs[6]=798.925
Cvtrs[7]=742.088
Cvtrs[8]=692.732
Cvtrs[9]=472.308

T=590
Tve=590
Cvtrs[0]=1038.36
Cvtrs[1]=890.41
Cvtrs[2]=779.511
Cvtrs[3]=865.298
Cvtrs[4]=742.008
Cvtrs[5]=649.592
Cvtrs[6]=798.925
Cvtrs[7]=742.088
Cvtrs[8]=692.732
Cvtrs[9]=472.308

T=600
Tve=600
Cvtrs[0]=1038.36
Cvtrs[1]=890.41
Cvtrs[2]=779.511
Cvtrs[3]=865.298
Cvtrs[4]=742.008
Cvtrs[5]=649.592
Cvtrs[6]=798.925
Cvtrs[7]=742.088
Cvtrs[8]=692.732
Cvtrs[9]=472.308

T=610
Tve=610
Cvtrs[0]=1038.36
Cvtrs[1]=890.41
Cvtrs[2]=779.511
Cvtrs[3]=865.298
Cvtrs[4]=742.008
Cvtrs[5]=649.592
Cvtrs[6]=798.925
Cvtrs[7]=742.088
Cvtrs[8]=692.732
Cvtrs[9]=472.308

T=620
Tve=620
Cvtrs[0]=1038.36
Cvtrs[1]=890.41
Cvtrs[2]=779.511
Cvtrs[3]=865.298
Cvtrs[4]=742.008
Cvtrs[5]=649.592
Cvtrs[6]=798.925
Cvtrs[7]=742.088
Cvtrs[8]=692.732
Cvtrs[9]=472.308

T=630
Tve=630
Cvtrs[0]=1038.36
Cvtrs[1]=890.41
Cvtrs[2]=779.511
Cvtrs[3]=865.298
Cvtrs[4]=742.008
Cvtrs[5]=649.592
Cvtrs[6]=798.925
Cvtrs[7]=742.088
Cvtrs[8]=692.732
Cvtrs[9]=472.308

T=640
Tve=640
Cvtrs[0]=1038.36
Cvtrs[1]=890.41
Cvtrs[2]=779.511
Cvtrs[3]=865.298
Cvtrs[4]=742.008
Cvtrs[5]=649.592
Cvtrs[6]=798.925
Cvtrs[7]=742.088
Cvtrs[8]=692.732
Cvtrs[9]=472.308

T=650
Tve=650
Cvtrs[0]=1038.36
Cvtrs[1]=890.41
Cvtrs[2]=779.511
Cvtrs[3]=865.298
Cvtrs[4]=742.008
Cvtrs[5]=649.592
Cvtrs[6]=798.925
Cvtrs[7]=742.088
Cvtrs[8]=692.732
Cvtrs[9]=472.308

T=660
Tve=660
Cvtrs[0]=1038.36
Cvtrs[1]=890.41
Cvtrs[2]=779.511
Cvtrs[3]=865.298
Cvtrs[4]=742.008
Cvtrs[5]=649.592
Cvtrs[6]=798.925
Cvtrs[7]=742.088
Cvtrs[8]=692.732
Cvtrs[9]=472.308

T=670
Tve=670
Cvtrs[0]=1038.36
Cvtrs[1]=890.41
Cvtrs[2]=779.511
Cvtrs[3]=865.298
Cvtrs[4]=742.008
Cvtrs[5]=649.592
Cvtrs[6]=798.925
Cvtrs[7]=742.088
Cvtrs[8]=692.732
Cvtrs[9]=472.308

T=680
Tve=680
Cvtrs[0]=1038.36
Cvtrs[1]=890.41
Cvtrs[2]=779.511
Cvtrs[3]=865.298
Cvtrs[4]=742.008
Cvtrs[5]=649.592
Cvtrs[6]=798.925
Cvtrs[7]=742.088
Cvtrs[8]=692.732
Cvtrs[9]=472.308

T=690
Tve=690
Cvtrs[0]=1038.36
Cvtrs[1]=890.41
Cvtrs[2]=779.511
Cvtrs[3]=865.298
Cvtrs[4]=742.008
Cvtrs[5]=649.592
Cvtrs[6]=798.925
Cvtrs[7]=742.088
Cvtrs[8]=692.732
Cvtrs[9]=472.308

T=700
Tve=700
Cvtrs[0]=1038.36
Cvtrs[1]=890.41
Cvtrs[2]=779.511
Cvtrs[3]=865.298
Cvtrs[4]=742.008
Cvtrs[5]=649.592
Cvtrs[6]=798.925
Cvtrs[7]=742.088
Cvtrs[8]=692.732
Cvtrs[9]=472.308

T=710
Tve=710
Cvtrs[0]=1038.36
Cvtrs[1]=890.41
Cvtrs[2]=779.511
Cvtrs[3]=865.298
Cvtrs[4]=742.008
Cvtrs[5]=649.592
Cvtrs[6]=798.925
Cvtrs[7]=742.088
Cvtrs[8]=692.732
Cvtrs[9]=472.308

T=720
Tve=720
Cvtrs[0]=1038.36
Cvtrs[1]=890.41
Cvtrs[2]=779.511
Cvtrs[3]=865.298
Cvtrs[4]=742.008
Cvtrs[5]=649.592
Cvtrs[6]=798.925
Cvtrs[7]=742.088
Cvtrs[8]=692.732
Cvtrs[9]=472.308

T=730
Tve=730
Cvtrs[0]=1038.36
Cvtrs[1]=890.41
Cvtrs[2]=779.511
Cvtrs[3]=865.298
Cvtrs[4]=742.008
Cvtrs[5]=649.592
Cvtrs[6]=798.925
Cvtrs[7]=742.088
Cvtrs[8]=692.732
Cvtrs[9]=472.308

T=740
Tve=740
Cvtrs[0]=1038.36
Cvtrs[1]=890.41
Cvtrs[2]=779.511
Cvtrs[3]=865.298
Cvtrs[4]=742.008
Cvtrs[5]=649.592
Cvtrs[6]=798.925
Cvtrs[7]=742.088
Cvtrs[8]=692.732
Cvtrs[9]=472.308

T=750
Tve=750
Cvtrs[0]=1038.36
Cvtrs[1]=890.41
Cvtrs[2]=779.511
Cvtrs[3]=865.298
Cvtrs[4]=742.008
Cvtrs[5]=649.592
Cvtrs[6]=798.925
Cvtrs[7]=742.088
Cvtrs[8]=692.732
Cvtrs[9]=472.308

T=760
Tve=760
Cvtrs[0]=1038.36
Cvtrs[1]=890.41
Cvtrs[2]=779.511
Cvtrs[3]=865.298
Cvtrs[4]=742.008
Cvtrs[5]=649.592
Cvtrs[6]=798.925
Cvtrs[7]=742.088
Cvtrs[8]=692.732
Cvtrs[9]=472.308

T=770
Tve=770
Cvtrs[0]=1038.36
Cvtrs[1]=890.41
Cvtrs[2]=779.511
Cvtrs[3]=865.298
Cvtrs[4]=742.008
Cvtrs[5]=649.592
Cvtrs[6]=798.925
Cvtrs[7]=742.088
Cvtrs[8]=692.732
Cvtrs[9]=472.308

T=780
Tve=780
Cvtrs[0]=1038.36
Cvtrs[1]=890.41
Cvtrs[2]=779.511
Cvtrs[3]=865.298
Cvtrs[4]=742.008
Cvtrs[5]=649.592
Cvtrs[6]=798.925
Cvtrs[7]=742.088
Cvtrs[8]=692.732
Cvtrs[9]=472.308

T=790
Tve=790
Cvtrs[0]=1038.36
Cvtrs[1]=890.41
Cvtrs[2]=779.511
Cvtrs[3]=865.298
Cvtrs[4]=742.008
Cvtrs[5]=649.592
Cvtrs[6]=798.925
Cvtrs[7]=742.088
Cvtrs[8]=692.732
Cvtrs[9]=472.308

T=800
Tve=800
Cvtrs[0]=1038.36
Cvtrs[1]=890.41
Cvtrs[2]=779.511
Cvtrs[3]=865.298
Cvtrs[4]=742.008
Cvtrs[5]=649.592
Cvtrs[6]=798.925
Cvtrs[7]=742.088
Cvtrs[8]=692.732
Cvtrs[9]=472.308

T=810
Tve=810
Cvtrs[0]=1038.36
Cvtrs[1]=890.41
Cvtrs[2]=779.511
Cvtrs[3]=865.298
Cvtrs[4]=742.008
Cvtrs[5]=649.592
Cvtrs[6]=798.925
Cvtrs[7]=742.088
Cvtrs[8]=692.732
Cvtrs[9]=472.308

T=820
Tve=820
Cvtrs[0]=1038.36
Cvtrs[1]=890.41
Cvtrs[2]=779.511
Cvtrs[3]=865.298
Cvtrs[4]=742.008
Cvtrs[5]=649.592
Cvtrs[6]=798.925
Cvtrs[7]=742.088
Cvtrs[8]=692.732
Cvtrs[9]=472.308

T=830
Tve=830
Cvtrs[0]=1038.36
Cvtrs[1]=890.41
Cvtrs[2]=779.511
Cvtrs[3]=865.298
Cvtrs[4]=742.008
Cvtrs[5]=649.592
Cvtrs[6]=798.925
Cvtrs[7]=742.088
Cvtrs[8]=692.732
Cvtrs[9]=472.308

T=840
Tve=840
Cvtrs[0]=1038.36
Cvtrs[1]=890.41
Cvtrs[2]=779.511
Cvtrs[3]=865.298
Cvtrs[4]=742.008
Cvtrs[5]=649.592
Cvtrs[6]=798.925
Cvtrs[7]=742.088
Cvtrs[8]=692.732
Cvtrs[9]=472.308

T=850
Tve=850
Cvtrs[0]=1038.36
Cvtrs[1]=890.41
Cvtrs[2]=779.511
Cvtrs[3]=865.298
Cvtrs[4]=742.008
Cvtrs[5]=649.592
Cvtrs[6]=798.925
Cvtrs[7]=742.088
Cvtrs[8]=692.732
Cvtrs[9]=472.308

T=860
Tve=860
Cvtrs[0]=1038.36
Cvtrs[1]=890.41
Cvtrs[2]=779.511
Cvtrs[3]=865.298
Cvtrs[4]=742.008
Cvtrs[5]=649.592
Cvtrs[6]=798.925
Cvtrs[7]=742.088
Cvtrs[8]=692.732
Cvtrs[9]=472.308

T=870
Tve=870
Cvtrs[0]=1038.36
Cvtrs[1]=890.41
Cvtrs[2]=779.511
Cvtrs[3]=865.298
Cvtrs[4]=742.008
Cvtrs[5]=649.592
Cvtrs[6]=798.925
Cvtrs[7]=742.088
Cvtrs[8]=692.732
Cvtrs[9]=472.308

T=880
Tve=880
Cvtrs[0]=1038.36
Cvtrs[1]=890.41
Cvtrs[2]=779.511
Cvtrs[3]=865.298
Cvtrs[4]=742.008
Cvtrs[5]=649.592
Cvtrs[6]=798.925
Cvtrs[7]=742.088
Cvtrs[8]=692.732
Cvtrs[9]=472.308

T=890
Tve=890
Cvtrs[0]=1038.36
Cvtrs[1]=890.41
Cvtrs[2]=779.511
Cvtrs[3]=865.298
Cvtrs[4]=742.008
Cvtrs[5]=649.592
Cvtrs[6]=798.925
Cvtrs[7]=742.088
Cvtrs[8]=692.732
Cvtrs[9]=472.308

T=900
Tve=900
Cvtrs[0]=1038.36
Cvtrs[1]=890.41
Cvtrs[2]=779.511
Cvtrs[3]=865.298
Cvtrs[4]=742.008
Cvtrs[5]=649.592
Cvtrs[6]=798.925
Cvtrs[7]=742.088
Cvtrs[8]=692.732
Cvtrs[9]=472.308

T=910
Tve=910
Cvtrs[0]=1038.36
Cvtrs[1]=890.41
Cvtrs[2]=779.511
Cvtrs[3]=865.298
Cvtrs[4]=742.008
Cvtrs[5]=649.592
Cvtrs[6]=798.925
Cvtrs[7]=742.088
Cvtrs[8]=692.732
Cvtrs[9]=472.308

T=920
Tve=920
Cvtrs[0]=1038.36
Cvtrs[1]=890.41
Cvtrs[2]=779.511
Cvtrs[3]=865.298
Cvtrs[4]=742.008
Cvtrs[5]=649.592
Cvtrs[6]=798.925
Cvtrs[7]=742.088
Cvtrs[8]=692.732
Cvtrs[9]=472.308

T=930
Tve=930
Cvtrs[0]=1038.36
Cvtrs[1]=890.41
Cvtrs[2]=779.511
Cvtrs[3]=865.298
Cvtrs[4]=742.008
Cvtrs[5]=649.592
Cvtrs[6]=798.925
Cvtrs[7]=742.088
Cvtrs[8]=692.732
Cvtrs[9]=472.308

T=940
Tve=940
Cvtrs[0]=1038.36
Cvtrs[1]=890.41
Cvtrs[2]=779.511
Cvtrs[3]=865.298
Cvtrs[4]=742.008
Cvtrs[5]=649.592
Cvtrs[6]=798.925
Cvtrs[7]=742.088
Cvtrs[8]=692.732
Cvtrs[9]=472.308

T=950
Tve=950
Cvtrs[0]=1038.36
Cvtrs[1]=890.41
Cvtrs[2]=779.511
Cvtrs[3]=865.298
Cvtrs[4]=742.008
Cvtrs[5]=649.592
Cvtrs[6]=798.925
Cvtrs[7]=742.088
Cvtrs[8]=692.732
Cvtrs[9]=472.308

T=960
Tve=960
Cvtrs[0]=1038.36
Cvtrs[1]=890.41
Cvtrs[2]=779.511
Cvtrs[3]=865.298
Cvtrs[4]=742.008
Cvtrs[5]=649.592
Cvtrs[6]=798.925
Cvtrs[7]=742.088
Cvtrs[8]=692.732
Cvtrs[9]=472.308

T=970
Tve=970
Cvtrs[0]=1038.36
Cvtrs[1]=890.41
Cvtrs[2]=779.511
Cvtrs[3]=865.298
Cvtrs[4]=742.008
Cvtrs[5]=649.592
Cvtrs[6]=798.925
Cvtrs[7]=742.088
Cvtrs[8]=692.732
Cvtrs[9]=472.308

T=980
Tve=980
Cvtrs[0]=1038.36
Cvtrs[1]=890.41
Cvtrs[2]=779.511
Cvtrs[3]=865.298
Cvtrs[4]=742.008
Cvtrs[5]=649.592
Cvtrs[6]=798.925
Cvtrs[7]=742.088
Cvtrs[8]=692.732
Cvtrs[9]=472.308

T=990
Tve=990
Cvtrs[0]=1038.36
Cvtrs[1]=890.41
Cvtrs[2]=779.511
Cvtrs[3]=865.298
Cvtrs[4]=742.008
Cvtrs[5]=649.592
Cvtrs[6]=798.925
Cvtrs[7]=742.088
Cvtrs[8]=692.732
Cvtrs[9]=472.308

T=1000
Tve=1000
Cvtrs[0]=1038.36
Cvtrs[1]=890.41
Cvtrs[2]=779.511
Cvtrs[3]=865.298
Cvtrs[4]=742.008
Cvtrs[5]=649.592
Cvtrs[6]=798.925
Cvtrs[7]=742.088
Cvtrs[8]=692.732
Cvtrs[9]=472.308

T=1010
Tve=1010
Cvtrs[0]=1038.36
Cvtrs[1]=890.41
Cvtrs[2]=779.511
Cvtrs[3]=865.298
Cvtrs[4]=742.008
Cvtrs[5]=649.592
Cvtrs[6]=798.925
Cvtrs[7]=742.088
Cvtrs[8]=692.732
Cvtrs[9]=472.308

T=1020
Tve=1020
Cvtrs[0]=1038.36
Cvtrs[1]=890.41
Cvtrs[2]=779.511
Cvtrs[3]=865.298
Cvtrs[4]=742.008
Cvtrs[5]=649.592
Cvtrs[6]=798.925
Cvtrs[7]=742.088
Cvtrs[8]=692.732
Cvtrs[9]=472.308

T=1030
Tve=1030
Cvtrs[0]=1038.36
Cvtrs[1]=890.41
Cvtrs[2]=779.511
Cvtrs[3]=865.298
Cvtrs[4]=742.008
Cvtrs[5]=649.592
Cvtrs[6]=798.925
Cvtrs[7]=742.088
Cvtrs[8]=692.732
Cvtrs[9]=472.308

T=1040
Tve=1040
Cvtrs[0]=1038.36
Cvtrs[1]=890.41
Cvtrs[2]=779.511
Cvtrs[3]=865.298
Cvtrs[4]=742.008
Cvtrs[5]=649.592
Cvtrs[6]=798.925
Cvtrs[7]=742.088
Cvtrs[8]=692.732
Cvtrs[9]=472.308

T=1050
Tve=1050
Cvtrs[0]=1038.36
Cvtrs[1]=890.41
Cvtrs[2]=779.511
Cvtrs[3]=865.298
Cvtrs[4]=742.008
Cvtrs[5]=649.592
Cvtrs[6]=798.925
Cvtrs[7]=742.088
Cvtrs[8]=692.732
Cvtrs[9]=472.308

T=1060
Tve=1060
Cvtrs[0]=1038.36
Cvtrs[1]=890.41
Cvtrs[2]=779.511
Cvtrs[3]=865.298
Cvtrs[4]=742.008
Cvtrs[5]=649.592
Cvtrs[6]=798.925
Cvtrs[7]=742.088
Cvtrs[8]=692.732
Cvtrs[9]=472.308

T=1070
Tve=1070
Cvtrs[0]=1038.36
Cvtrs[1]=890.41
Cvtrs[2]=779.511
Cvtrs[3]=865.298
Cvtrs[4]=742.008
Cvtrs[5]=649.592
Cvtrs[6]=798.925
Cvtrs[7]=742.088
Cvtrs[8]=692.732
Cvtrs[9]=472.308

T=1080
Tve=1080
Cvtrs[0]=1038.36
Cvtrs[1]=890.41
Cvtrs[2]=779.511
Cvtrs[3]=865.298
Cvtrs[4]=742.008
Cvtrs[5]=649.592
Cvtrs[6]=798.925
Cvtrs[7]=742.088
Cvtrs[8]=692.732
Cvtrs[9]=472.308

T=1090
Tve=1090
Cvtrs[0]=1038.36
Cvtrs[1]=890.41
Cvtrs[2]=779.511
Cvtrs[3]=865.298
Cvtrs[4]=742.008
Cvtrs[5]=649.592
Cvtrs[6]=798.925
Cvtrs[7]=742.088
Cvtrs[8]=692.732
Cvtrs[9]=472.308

T=1100
Tve=1100
Cvtrs[0]=1038.36
Cvtrs[1]=890.41
Cvtrs[2]=779.511
Cvtrs[3]=865.298
Cvtrs[4]=742.008
Cvtrs[5]=649.592
Cvtrs[6]=798.925
Cvtrs[7]=742.088
Cvtrs[8]=692.732
Cvtrs[9]=472.308

T=1110
Tve=1110
Cvtrs[0]=1038.36
Cvtrs[1]=890.41
Cvtrs[2]=779.511
Cvtrs[3]=865.298
Cvtrs[4]=742.008
Cvtrs[5]=649.592
Cvtrs[6]=798.925
Cvtrs[7]=742.088
Cvtrs[8]=692.732
Cvtrs[9]=472.308

T=1120
Tve=1120
Cvtrs[0]=1038.36
Cvtrs[1]=890.41
Cvtrs[2]=779.511
Cvtrs[3]=865.298
Cvtrs[4]=742.008
Cvtrs[5]=649.592
Cvtrs[6]=798.925
Cvtrs[7]=742.088
Cvtrs[8]=692.732
Cvtrs[9]=472.308

T=1130
Tve=1130
Cvtrs[0]=1038.36
Cvtrs[1]=890.41
Cvtrs[2]=779.511
Cvtrs[3]=865.298
Cvtrs[4]=742.008
Cvtrs[5]=649.592
Cvtrs[6]=798.925
Cvtrs[7]=742.088
Cvtrs[8]=692.732
Cvtrs[9]=472.308

T=1140
Tve=1140
Cvtrs[0]=1038.36
Cvtrs[1]=890.41
Cvtrs[2]=779.511
Cvtrs[3]=865.298
Cvtrs[4]=742.008
Cvtrs[5]=649.592
Cvtrs[6]=798.925
Cvtrs[7]=742.088
Cvtrs[8]=692.732
Cvtrs[9]=472.308

T=1150
Tve=1150
Cvtrs[0]=1038.36
Cvtrs[1]=890.41
Cvtrs[2]=779.511
Cvtrs[3]=865.298
Cvtrs[4]=742.008
Cvtrs[5]=649.592
Cvtrs[6]=798.925
Cvtrs[7]=742.088
Cvtrs[8]=692.732
Cvtrs[9]=472.308

T=1160
Tve=1160
Cvtrs[0]=1038.36
Cvtrs[1]=890.41
Cvtrs[2]=779.511
Cvtrs[3]=865.298
Cvtrs[4]=742.008
Cvtrs[5]=649.592
Cvtrs[6]=798.925
Cvtrs[7]=742.088
Cvtrs[8]=692.732
Cvtrs[9]=472.308

T=1170
Tve=1170
Cvtrs[0]=1038.36
Cvtrs[1]=890.41
Cvtrs[2]=779.511
Cvtrs[3]=865.298
Cvtrs[4]=742.008
Cvtrs[5]=649.592
Cvtrs[6]=798.925
Cvtrs[7]=742.088
Cvtrs[8]=692.732
Cvtrs[9]=472.308

T=1180
Tve=1180
Cvtrs[0]=1038.36
Cvtrs[1]=890.41
Cvtrs[2]=779.511
Cvtrs[3]=865.298
Cvtrs[4]=742.008
Cvtrs[5]=649.592
Cvtrs[6]=798.925
Cvtrs[7]=742.088
Cvtrs[8]=692.732
Cvtrs[9]=472.308

T=1190
Tve=1190
Cvtrs[0]=1038.36
Cvtrs[1]=890.41
Cvtrs[2]=779.511
Cvtrs[3]=865.298
Cvtrs[4]=742.008
Cvtrs[5]=649.592
Cvtrs[6]=798.925
Cvtrs[7]=742.088
Cvtrs[8]=692.732
Cvtrs[9]=472.308

T=1200
Tve=1200
Cvtrs[0]=1038.36
Cvtrs[1]=890.41
Cvtrs[2]=779.511
Cvtrs[3]=865.298
Cvtrs[4]=742.008
Cvtrs[5]=649.592
Cvtrs[6]=798.925
Cvtrs[7]=742.088
Cvtrs[8]=692.732
Cvtrs[9]=472.308

T=1210
Tve=1210
Cvtrs[0]=1038.36
Cvtrs[1]=890.41
Cvtrs[2]=779.511
Cvtrs[3]=865.298
Cvtrs[4]=742.008
Cvtrs[5]=649.592
Cvtrs[6]=798.925
Cvtrs[7]=742.088
Cvtrs[8]=692.732
Cvtrs[9]=472.308

T=1220
Tve=1220
Cvtrs[0]=1038.36
Cvtrs[1]=890.41
Cvtrs[2]=779.511
Cvtrs[3]=865.298
Cvtrs[4]=742.008
Cvtrs[5]=649.592
Cvtrs[6]=798.925
Cvtrs[7]=742.088
Cvtrs[8]=692.732
Cvtrs[9]=472.308

T=1230
Tve=1230
Cvtrs[0]=1038.36
Cvtrs[1]=890.41
Cvtrs[2]=779.511
Cvtrs[3]=865.298
Cvtrs[4]=742.008
Cvtrs[5]=649.592
Cvtrs[6]=798.925
Cvtrs[7]=742.088
Cvtrs[8]=692.732
Cvtrs[9]=472.308

T=1240
Tve=1240
Cvtrs[0]=1038.36
Cvtrs[1]=890.41
Cvtrs[2]=779.511
Cvtrs[3]=865.298
Cvtrs[4]=742.008
Cvtrs[5]=649.592
Cvtrs[6]=798.925
Cvtrs[7]=742.088
Cvtrs[8]=692.732
Cvtrs[9]=472.308

T=1250
Tve=1250
Cvtrs[0]=1038.36
Cvtrs[1]=890.41
Cvtrs[2]=779.511
Cvtrs[3]=865.298
Cvtrs[4]=742.008
Cvtrs[5]=649.592
Cvtrs[6]=798.925
Cvtrs[7]=742.088
Cvtrs[8]=692.732
Cvtrs[9]=472.308

T=1260
Tve=1260
Cvtrs[0]=1038.36
Cvtrs[1]=890.41
Cvtrs[2]=779.511
Cvtrs[3]=865.298
Cvtrs[4]=742.008
Cvtrs[5]=649.592
Cvtrs[6]=798.925
Cvtrs[7]=742.088
Cvtrs[8]=692.732
Cvtrs[9]=472.308

T=1270
Tve=1270
Cvtrs[0]=1038.36
Cvtrs[1]=890.41
Cvtrs[2]=779.511
Cvtrs[3]=865.298
Cvtrs[4]=742.008
Cvtrs[5]=649.592
Cvtrs[6]=798.925
Cvtrs[7]=742.088
Cvtrs[8]=692.732
Cvtrs[9]=472.308

T=1280
Tve=1280
Cvtrs[0]=1038.36
Cvtrs[1]=890.41
Cvtrs[2]=779.511
Cvtrs[3]=865.298
Cvtrs[4]=742.008
Cvtrs[5]=649.592
Cvtrs[6]=798.925
Cvtrs[7]=742.088
Cvtrs[8]=692.732
Cvtrs[9]=472.308

T=1290
Tve=1290
Cvtrs[0]=1038.36
Cvtrs[1]=890.41
Cvtrs[2]=779.511
Cvtrs[3]=865.298
Cvtrs[4]=742.008
Cvtrs[5]=649.592
Cvtrs[6]=798.925
Cvtrs[7]=742.088
Cvtrs[8]=692.732
Cvtrs[9]=472.308

T=1300
Tve=1300
Cvtrs[0]=1038.36
Cvtrs[1]=890.41
Cvtrs[2]=779.511
Cvtrs[3]=865.298
Cvtrs[4]=742.008
Cvtrs[5]=649.592
Cvtrs[6]=798.925
Cvtrs[7]=742.088
Cvtrs[8]=692.732
Cvtrs[9]=472.308

T=1310
Tve=1310
Cvtrs[0]=1038.36
Cvtrs[1]=890.41
Cvtrs[2]=779.511
Cvtrs[3]=865.298
Cvtrs[4]=742.008
Cvtrs[5]=649.592
Cvtrs[6]=798.925
Cvtrs[7]=742.088
Cvtrs[8]=692.732
Cvtrs[9]=472.308

T=1320
Tve=1320
Cvtrs[0]=1038.36
Cvtrs[1]=890.41
Cvtrs[2]=779.511
Cvtrs[3]=865.298
Cvtrs[4]=742.008
Cvtrs[5]=649.592
Cvtrs[6]=798.925
Cvtrs[7]=742.088
Cvtrs[8]=692.732
Cvtrs[9]=472.308

T=1330
Tve=1330
Cvtrs[0]=1038.36
Cvtrs[1]=890.41
Cvtrs[2]=779.511
Cvtrs[3]=865.298
Cvtrs[4]=742.008
Cvtrs[5]=649.592
Cvtrs[6]=798.925
Cvtrs[7]=742.088
Cvtrs[8]=692.732
Cvtrs[9]=472.308

T=1340
Tve=1340
Cvtrs[0]=1038.36
Cvtrs[1]=890.41
Cvtrs[2]=779.511
Cvtrs[3]=865.298
Cvtrs[4]=742.008
Cvtrs[5]=649.592
Cvtrs[6]=798.925
Cvtrs[7]=742.088
Cvtrs[8]=692.732
Cvtrs[9]=472.308

T=1350
Tve=1350
Cvtrs[0]=1038.36
Cvtrs[1]=890.41
Cvtrs[2]=779.511
Cvtrs[3]=865.298
Cvtrs[4]=742.008
Cvtrs[5]=649.592
Cvtrs[6]=798.925
Cvtrs[7]=742.088
Cvtrs[8]=692.732
Cvtrs[9]=472.308

T=1360
Tve=1360
Cvtrs[0]=1038.36
Cvtrs[1]=890.41
Cvtrs[2]=779.511
Cvtrs[3]=865.298
Cvtrs[4]=742.008
Cvtrs[5]=649.592
Cvtrs[6]=798.925
Cvtrs[7]=742.088
Cvtrs[8]=692.732
Cvtrs[9]=472.308

T=1370
Tve=1370
Cvtrs[0]=1038.36
Cvtrs[1]=890.41
Cvtrs[2]=779.511
Cvtrs[3]=865.298
Cvtrs[4]=742.008
Cvtrs[5]=649.592
Cvtrs[6]=798.925
Cvtrs[7]=742.088
Cvtrs[8]=692.732
Cvtrs[9]=472.308

T=1380
Tve=1380
Cvtrs[0]=1038.36
Cvtrs[1]=890.41
Cvtrs[2]=779.511
Cvtrs[3]=865.298
Cvtrs[4]=742.008
Cvtrs[5]=649.592
Cvtrs[6]=798.925
Cvtrs[7]=742.088
Cvtrs[8]=692.732
Cvtrs[9]=472.308

T=1390
Tve=1390
Cvtrs[0]=1038.36
Cvtrs[1]=890.41
Cvtrs[2]=779.511
Cvtrs[3]=865.298
Cvtrs[4]=742.008
Cvtrs[5]=649.592
Cvtrs[6]=798.925
Cvtrs[7]=742.088
Cvtrs[8]=692.732
Cvtrs[9]=472.308

T=1400
Tve=1400
Cvtrs[0]=1038.36
Cvtrs[1]=890.41
Cvtrs[2]=779.511
Cvtrs[3]=865.298
Cvtrs[4]=742.008
Cvtrs[5]=649.592
Cvtrs[6]=798.925
Cvtrs[7]=742.088
Cvtrs[8]=692.732
Cvtrs[9]=472.308

T=1410
Tve=1410
Cvtrs[0]=1038.36
Cvtrs[1]=890.41
Cvtrs[2]=779.511
Cvtrs[3]=865.298
Cvtrs[4]=742.008
Cvtrs[5]=649.592
Cvtrs[6]=798.925
Cvtrs[7]=742.088
Cvtrs[8]=692.732
Cvtrs[9]=472.308

T=1420
Tve=1420
Cvtrs[0]=1038.36
Cvtrs[1]=890.41
Cvtrs[2]=779.511
Cvtrs[3]=865.298
Cvtrs[4]=742.008
Cvtrs[5]=649.592
Cvtrs[6]=798.925
Cvtrs[7]=742.088
Cvtrs[8]=692.732
Cvtrs[9]=472.308

T=1430
Tve=1430
Cvtrs[0]=1038.36
Cvtrs[1]=890.41
Cvtrs[2]=779.511
Cvtrs[3]=865.298
Cvtrs[4]=742.008
Cvtrs[5]=649.592
Cvtrs[6]=798.925
Cvtrs[7]=742.088
Cvtrs[8]=692.732
Cvtrs[9]=472.308

T=1440
Tve=1440
Cvtrs[0]=1038.36
Cvtrs[1]=890.41
Cvtrs[2]=779.511
Cvtrs[3]=865.298
Cvtrs[4]=742.008
Cvtrs[5]=649.592
Cvtrs[6]=798.925
Cvtrs[7]=742.088
Cvtrs[8]=692.732
Cvtrs[9]=472.308

T=1450
Tve=1450
Cvtrs[0]=1038.36
Cvtrs[1]=890.41
Cvtrs[2]=779.511
Cvtrs[3]=865.298
Cvtrs[4]=742.008
Cvtrs[5]=649.592
Cvtrs[6]=798.925
Cvtrs[7]=742.088
Cvtrs[8]=692.732
Cvtrs[9]=472.308

T=1460
Tve=1460
Cvtrs[0]=1038.36
Cvtrs[1]=890.41
Cvtrs[2]=779.511
Cvtrs[3]=865.298
Cvtrs[4]=742.008
Cvtrs[5]=649.592
Cvtrs[6]=798.925
Cvtrs[7]=742.088
Cvtrs[8]=692.732
Cvtrs[9]=472.308

T=1470
Tve=1470
Cvtrs[0]=1038.36
Cvtrs[1]=890.41
Cvtrs[2]=779.511
Cvtrs[3]=865.298
Cvtrs[4]=742.008
Cvtrs[5]=649.592
Cvtrs[6]=798.925
Cvtrs[7]=742.088
Cvtrs[8]=692.732
Cvtrs[9]=472.308

T=1480
Tve=1480
Cvtrs[0]=1038.36
Cvtrs[1]=890.41
Cvtrs[2]=779.511
Cvtrs[3]=865.298
Cvtrs[4]=742.008
Cvtrs[5]=649.592
Cvtrs[6]=798.925
Cvtrs[7]=742.088
Cvtrs[8]=692.732
Cvtrs[9]=472.308

T=1490
Tve=1490
Cvtrs[0]=1038.36
Cvtrs[1]=890.41
Cvtrs[2]=779.511
Cvtrs[3]=865.298
Cvtrs[4]=742.008
Cvtrs[5]=649.592
Cvtrs[6]=798.925
Cvtrs[7]=742.088
Cvtrs[8]=692.732
Cvtrs[9]=472.308

T=1500
Tve=1500
Cvtrs[0]=1038.36
Cvtrs[1]=890.41
Cvtrs[2]=779.511
Cvtrs[3]=865.298
Cvtrs[4]=742.008
Cvtrs[5]=649.592
Cvtrs[6]=798.925
Cvtrs[7]=742.088
Cvtrs[8]=692.732
Cvtrs[9]=472.308

T=1510
Tve=1510
Cvtrs[0]=1038.36
Cvtrs[1]=890.41
Cvtrs[2]=779.511
Cvtrs[3]=865.298
Cvtrs[4]=742.008
Cvtrs[5]=649.592
Cvtrs[6]=798.925
Cvtrs[7]=742.088
Cvtrs[8]=692.732
Cvtrs[9]=472.308

T=1520
Tve=1520
Cvtrs[0]=1038.36
Cvtrs[1]=890.41
Cvtrs[2]=779.511
Cvtrs[3]=865.298
Cvtrs[4]=742.008
Cvtrs[5]=649.592
Cvtrs[6]=798.925
Cvtrs[7]=742.088
Cvtrs[8]=692.732
Cvtrs[9]=472.308

T=1530
Tve=1530
Cvtrs[0]=1038.36
Cvtrs[1]=890.41
Cvtrs[2]=779.511
Cvtrs[3]=865.298
Cvtrs[4]=742.008
Cvtrs[5]=649.592
Cvtrs[6]=798.925
Cvtrs[7]=742.088
Cvtrs[8]=692.732
Cvtrs[9]=472.308

T=1540
Tve=1540
Cvtrs[0]=1038.36
Cvtrs[1]=890.41
Cvtrs[2]=779.511
Cvtrs[3]=865.298
Cvtrs[4]=742.008
Cvtrs[5]=649.592
Cvtrs[6]=798.925
Cvtrs[7]=742.088
Cvtrs[8]=692.732
Cvtrs[9]=472.308

T=1550
Tve=1550
Cvtrs[0]=1038.36
Cvtrs[1]=890.41
Cvtrs[2]=779.511
Cvtrs[3]=865.298
Cvtrs[4]=742.008
Cvtrs[5]=649.592
Cvtrs[6]=798.925
Cvtrs[7]=742.088
Cvtrs[8]=692.732
Cvtrs[9]=472.308

T=1560
Tve=1560
Cvtrs[0]=1038.36
Cvtrs[1]=890.41
Cvtrs[2]=779.511
Cvtrs[3]=865.298
Cvtrs[4]=742.008
Cvtrs[5]=649.592
Cvtrs[6]=798.925
Cvtrs[7]=742.088
Cvtrs[8]=692.732
Cvtrs[9]=472.308

T=1570
Tve=1570
Cvtrs[0]=1038.36
Cvtrs[1]=890.41
Cvtrs[2]=779.511
Cvtrs[3]=865.298
Cvtrs[4]=742.008
Cvtrs[5]=649.592
Cvtrs[6]=798.925
Cvtrs[7]=742.088
Cvtrs[8]=692.732
Cvtrs[9]=472.308

T=1580
Tve=1580
Cvtrs[0]=1038.36
Cvtrs[1]=890.41
Cvtrs[2]=779.511
Cvtrs[3]=865.298
Cvtrs[4]=742.008
Cvtrs[5]=649.592
Cvtrs[6]=798.925
Cvtrs[7]=742.088
Cvtrs[8]=692.732
Cvtrs[9]=472.308

T=1590
Tve=1590
Cvtrs[0]=1038.36
Cvtrs[1]=890.41
Cvtrs[2]=779.511
Cvtrs[3]=865.298
Cvtrs[4]=742.008
Cvtrs[5]=649.592
Cvtrs[6]=798.925
Cvtrs[7]=742.088
Cvtrs[8]=692.732
Cvtrs[9]=472.308

T=1600
Tve=1600
Cvtrs[0]=1038.36
Cvtrs[1]=890.41
Cvtrs[2]=779.511
Cvtrs[3]=865.298
Cvtrs[4]=742.008
Cvtrs[5]=649.592
Cvtrs[6]=798.925
Cvtrs[7]=742.088
Cvtrs[8]=692.732
Cvtrs[9]=472.308

T=1610
Tve=1610
Cvtrs[0]=1038.36
Cvtrs[1]=890.41
Cvtrs[2]=779.511
Cvtrs[3]=865.298
Cvtrs[4]=742.008
Cvtrs[5]=649.592
Cvtrs[6]=798.925
Cvtrs[7]=742.088
Cvtrs[8]=692.732
Cvtrs[9]=472.308

T=1620
Tve=1620
Cvtrs[0]=1038.36
Cvtrs[1]=890.41
Cvtrs[2]=779.511
Cvtrs[3]=865.298
Cvtrs[4]=742.008
Cvtrs[5]=649.592
Cvtrs[6]=798.925
Cvtrs[7]=742.088
Cvtrs[8]=692.732
Cvtrs[9]=472.308

T=1630
Tve=1630
Cvtrs[0]=1038.36
Cvtrs[1]=890.41
Cvtrs[2]=779.511
Cvtrs[3]=865.298
Cvtrs[4]=742.008
Cvtrs[5]=649.592
Cvtrs[6]=798.925
Cvtrs[7]=742.088
Cvtrs[8]=692.732
Cvtrs[9]=472.308

T=1640
Tve=1640
Cvtrs[0]=1038.36
Cvtrs[1]=890.41
Cvtrs[2]=779.511
Cvtrs[3]=865.298
Cvtrs[4]=742.008
Cvtrs[5]=649.592
Cvtrs[6]=798.925
Cvtrs[7]=742.088
Cvtrs[8]=692.732
Cvtrs[9]=472.308

T=1650
Tve=1650
Cvtrs[0]=1038.36
Cvtrs[1]=890.41
Cvtrs[2]=779.511
Cvtrs[3]=865.298
Cvtrs[4]=742.008
Cvtrs[5]=649.592
Cvtrs[6]=798.925
Cvtrs[7]=742.088
Cvtrs[8]=692.732
Cvtrs[9]=472.308

T=1660
Tve=1660
Cvtrs[0]=1038.36
Cvtrs[1]=890.41
Cvtrs[2]=779.511
Cvtrs[3]=865.298
Cvtrs[4]=742.008
Cvtrs[5]=649.592
Cvtrs[6]=798.925
Cvtrs[7]=742.088
Cvtrs[8]=692.732
Cvtrs[9]=472.308

T=1670
Tve=1670
Cvtrs[0]=1038.36
Cvtrs[1]=890.41
Cvtrs[2]=779.511
Cvtrs[3]=865.298
Cvtrs[4]=742.008
Cvtrs[5]=649.592
Cvtrs[6]=798.925
Cvtrs[7]=742.088
Cvtrs[8]=692.732
Cvtrs[9]=472.308

T=1680
Tve=1680
Cvtrs[0]=1038.36
Cvtrs[1]=890.41
Cvtrs[2]=779.511
Cvtrs[3]=865.298
Cvtrs[4]=742.008
Cvtrs[5]=649.592
Cvtrs[6]=798.925
Cvtrs[7]=742.088
Cvtrs[8]=692.732
Cvtrs[9]=472.308

T=1690
Tve=1690
Cvtrs[0]=1038.36
Cvtrs[1]=890.41
Cvtrs[2]=779.511
Cvtrs[3]=865.298
Cvtrs[4]=742.008
Cvtrs[5]=649.592
Cvtrs[6]=798.925
Cvtrs[7]=742.088
Cvtrs[8]=692.732
Cvtrs[9]=472.308

T=1700
Tve=1700
Cvtrs[0]=1038.36
Cvtrs[1]=890.41
Cvtrs[2]=779.511
Cvtrs[3]=865.298
Cvtrs[4]=742.008
Cvtrs[5]=649.592
Cvtrs[6]=798.925
Cvtrs[7]=742.088
Cvtrs[8]=692.732
Cvtrs[9]=472.308

T=1710
Tve=1710
Cvtrs[0]=1038.36
Cvtrs[1]=890.41
Cvtrs[2]=779.511
Cvtrs[3]=865.298
Cvtrs[4]=742.008
Cvtrs[5]=649.592
Cvtrs[6]=798.925
Cvtrs[7]=742.088
Cvtrs[8]=692.732
Cvtrs[9]=472.308

T=1720
Tve=1720
Cvtrs[0]=1038.36
Cvtrs[1]=890.41
Cvtrs[2]=779.511
Cvtrs[3]=865.298
Cvtrs[4]=742.008
Cvtrs[5]=649.592
Cvtrs[6]=798.925
Cvtrs[7]=742.088
Cvtrs[8]=692.732
Cvtrs[9]=472.308

T=1730
Tve=1730
Cvtrs[0]=1038.36
Cvtrs[1]=890.41
Cvtrs[2]=779.511
Cvtrs[3]=865.298
Cvtrs[4]=742.008
Cvtrs[5]=649.592
Cvtrs[6]=798.925
Cvtrs[7]=742.088
Cvtrs[8]=692.732
Cvtrs[9]=472.308

T=1740
Tve=1740
Cvtrs[0]=1038.36
Cvtrs[1]=890.41
Cvtrs[2]=779.511
Cvtrs[3]=865.298
Cvtrs[4]=742.008
Cvtrs[5]=649.592
Cvtrs[6]=798.925
Cvtrs[7]=742.088
Cvtrs[8]=692.732
Cvtrs[9]=472.308

T=1750
Tve=1750
Cvtrs[0]=1038.36
Cvtrs[1]=890.41
Cvtrs[2]=779.511
Cvtrs[3]=865.298
Cvtrs[4]=742.008
Cvtrs[5]=649.592
Cvtrs[6]=798.925
Cvtrs[7]=742.088
Cvtrs[8]=692.732
Cvtrs[9]=472.308

T=1760
Tve=1760
Cvtrs[0]=1038.36
Cvtrs[1]=890.41
Cvtrs[2]=779.511
Cvtrs[3]=865.298
Cvtrs[4]=742.008
Cvtrs[5]=649.592
Cvtrs[6]=798.925
Cvtrs[7]=742.088
Cvtrs[8]=692.732
Cvtrs[9]=472.308

T=1770
Tve=1770
Cvtrs[0]=1038.36
Cvtrs[1]=890.41
Cvtrs[2]=779.511
Cvtrs[3]=865.298
Cvtrs[4]=742.008
Cvtrs[5]=649.592
Cvtrs[6]=798.925
Cvtrs[7]=742.088
Cvtrs[8]=692.732
Cvtrs[9]=472.308

T=1780
Tve=1780
Cvtrs[0]=1038.36
Cvtrs[1]=890.41
Cvtrs[2]=779.511
Cvtrs[3]=865.298
Cvtrs[4]=742.008
Cvtrs[5]=649.592
Cvtrs[6]=798.925
Cvtrs[7]=742.088
Cvtrs[8]=692.732
Cvtrs[9]=472.308

T=1790
Tve=1790
Cvtrs[0]=1038.36
Cvtrs[1]=890.41
Cvtrs[2]=779.511
Cvtrs[3]=865.298
Cvtrs[4]=742.008
Cvtrs[5]=649.592
Cvtrs[6]=798.925
Cvtrs[7]=742.088
Cvtrs[8]=692.732
Cvtrs[9]=472.308

T=1800
Tve=1800
Cvtrs[0]=1038.36
Cvtrs[1]=890.41
Cvtrs[2]=779.511
Cvtrs[3]=865.298
Cvtrs[4]=742.008
Cvtrs[5]=649.592
Cvtrs[6]=798.925
Cvtrs[7]=742.088
Cvtrs[8]=692.732
Cvtrs[9]=472.308

T=1810
Tve=1810
Cvtrs[0]=1038.36
Cvtrs[1]=890.41
Cvtrs[2]=779.511
Cvtrs[3]=865.298
Cvtrs[4]=742.008
Cvtrs[5]=649.592
Cvtrs[6]=798.925
Cvtrs[7]=742.088
Cvtrs[8]=692.732
Cvtrs[9]=472.308

T=1820
Tve=1820
Cvtrs[0]=1038.36
Cvtrs[1]=890.41
Cvtrs[2]=779.511
Cvtrs[3]=865.298
Cvtrs[4]=742.008
Cvtrs[5]=649.592
Cvtrs[6]=798.925
Cvtrs[7]=742.088
Cvtrs[8]=692.732
Cvtrs[9]=472.308

T=1830
Tve=1830
Cvtrs[0]=1038.36
Cvtrs[1]=890.41
Cvtrs[2]=779.511
Cvtrs[3]=865.298
Cvtrs[4]=742.008
Cvtrs[5]=649.592
Cvtrs[6]=798.925
Cvtrs[7]=742.088
Cvtrs[8]=692.732
Cvtrs[9]=472.308

T=1840
Tve=1840
Cvtrs[0]=1038.36
Cvtrs[1]=890.41
Cvtrs[2]=779.511
Cvtrs[3]=865.298
Cvtrs[4]=742.008
Cvtrs[5]=649.592
Cvtrs[6]=798.925
Cvtrs[7]=742.088
Cvtrs[8]=692.732
Cvtrs[9]=472.308

T=1850
Tve=1850
Cvtrs[0]=1038.36
Cvtrs[1]=890.41
Cvtrs[2]=779.511
Cvtrs[3]=865.298
Cvtrs[4]=742.008
Cvtrs[5]=649.592
Cvtrs[6]=798.925
Cvtrs[7]=742.088
Cvtrs[8]=692.732
Cvtrs[9]=472.308

T=1860
Tve=1860
Cvtrs[0]=1038.36
Cvtrs[1]=890.41
Cvtrs[2]=779.511
Cvtrs[3]=865.298
Cvtrs[4]=742.008
Cvtrs[5]=649.592
Cvtrs[6]=798.925
Cvtrs[7]=742.088
Cvtrs[8]=692.732
Cvtrs[9]=472.308

T=1870
Tve=1870
Cvtrs[0]=1038.36
Cvtrs[1]=890.41
Cvtrs[2]=779.511
Cvtrs[3]=865.298
Cvtrs[4]=742.008
Cvtrs[5]=649.592
Cvtrs[6]=798.925
Cvtrs[7]=742.088
Cvtrs[8]=692.732
Cvtrs[9]=472.308

T=1880
Tve=1880
Cvtrs[0]=1038.36
Cvtrs[1]=890.41
Cvtrs[2]=779.511
Cvtrs[3]=865.298
Cvtrs[4]=742.008
Cvtrs[5]=649.592
Cvtrs[6]=798.925
Cvtrs[7]=742.088
Cvtrs[8]=692.732
Cvtrs[9]=472.308

T=1890
Tve=1890
Cvtrs[0]=1038.36
Cvtrs[1]=890.41
Cvtrs[2]=779.511
Cvtrs[3]=865.298
Cvtrs[4]=742.008
Cvtrs[5]=649.592
Cvtrs[6]=798.925
Cvtrs[7]=742.088
Cvtrs[8]=692.732
Cvtrs[9]=472.308

T=1900
Tve=1900
Cvtrs[0]=1038.36
Cvtrs[1]=890.41
Cvtrs[2]=779.511
Cvtrs[3]=865.298
Cvtrs[4]=742.008
Cvtrs[5]=649.592
Cvtrs[6]=798.925
Cvtrs[7]=742.088
Cvtrs[8]=692.732
Cvtrs[9]=472.308

T=1910
Tve=1910
Cvtrs[0]=1038.36
Cvtrs[1]=890.41
Cvtrs[2]=779.511
Cvtrs[3]=865.298
Cvtrs[4]=742.008
Cvtrs[5]=649.592
Cvtrs[6]=798.925
Cvtrs[7]=742.088
Cvtrs[8]=692.732
Cvtrs[9]=472.308

T=1920
Tve=1920
Cvtrs[0]=1038.36
Cvtrs[1]=890.41
Cvtrs[2]=779.511
Cvtrs[3]=865.298
Cvtrs[4]=742.008
Cvtrs[5]=649.592
Cvtrs[6]=798.925
Cvtrs[7]=742.088
Cvtrs[8]=692.732
Cvtrs[9]=472.308

T=1930
Tve=1930
Cvtrs[0]=1038.36
Cvtrs[1]=890.41
Cvtrs[2]=779.511
Cvtrs[3]=865.298
Cvtrs[4]=742.008
Cvtrs[5]=649.592
Cvtrs[6]=798.925
Cvtrs[7]=742.088
Cvtrs[8]=692.732
Cvtrs[9]=472.308

T=1940
Tve=1940
Cvtrs[0]=1038.36
Cvtrs[1]=890.41
Cvtrs[2]=779.511
Cvtrs[3]=865.298
Cvtrs[4]=742.008
Cvtrs[5]=649.592
Cvtrs[6]=798.925
Cvtrs[7]=742.088
Cvtrs[8]=692.732
Cvtrs[9]=472.308

T=1950
Tve=1950
Cvtrs[0]=1038.36
Cvtrs[1]=890.41
Cvtrs[2]=779.511
Cvtrs[3]=865.298
Cvtrs[4]=742.008
Cvtrs[5]=649.592
Cvtrs[6]=798.925
Cvtrs[7]=742.088
Cvtrs[8]=692.732
Cvtrs[9]=472.308

T=1960
Tve=1960
Cvtrs[0]=1038.36
Cvtrs[1]=890.41
Cvtrs[2]=779.511
Cvtrs[3]=865.298
Cvtrs[4]=742.008
Cvtrs[5]=649.592
Cvtrs[6]=798.925
Cvtrs[7]=742.088
Cvtrs[8]=692.732
Cvtrs[9]=472.308

T=1970
Tve=1970
Cvtrs[0]=1038.36
Cvtrs[1]=890.41
Cvtrs[2]=779.511
Cvtrs[3]=865.298
Cvtrs[4]=742.008
Cvtrs[5]=649.592
Cvtrs[6]=798.925
Cvtrs[7]=742.088
Cvtrs[8]=692.732
Cvtrs[9]=472.308

T=1980
Tve=1980
Cvtrs[0]=1038.36
Cvtrs[1]=890.41
Cvtrs[2]=779.511
Cvtrs[3]=865.298
Cvtrs[4]=742.008
Cvtrs[5]=649.592
Cvtrs[6]=798.925
Cvtrs[7]=742.088
Cvtrs[8]=692.732
Cvtrs[9]=472.308

T=1990
Tve=1990
Cvtrs[0]=1038.36
Cvtrs[1]=890.41
Cvtrs[2]=779.511
Cvtrs[3]=865.298
Cvtrs[4]=742.008
Cvtrs[5]=649.592
Cvtrs[6]=798.925
Cvtrs[7]=742.088
Cvtrs[8]=692.732
Cvtrs[9]=472.308

T=2000
Tve=2000
Cvtrs[0]=1038.36
Cvtrs[1]=890.41
Cvtrs[2]=779.511
Cvtrs[3]=865.298
Cvtrs[4]=742.008
Cvtrs[5]=649.592
Cvtrs[6]=798.925
Cvtrs[7]=742.088
Cvtrs[8]=692.732
Cvtrs[9]=472.308

T=2010
Tve=2010
Cvtrs[0]=1038.36
Cvtrs[1]=890.41
Cvtrs[2]=779.511
Cvtrs[3]=865.298
Cvtrs[4]=742.008
Cvtrs[5]=649.592
Cvtrs[6]=798.925
Cvtrs[7]=742.088
Cvtrs[8]=692.732
Cvtrs[9]=472.308

T=2020
Tve=2020
Cvtrs[0]=1038.36
Cvtrs[1]=890.41
Cvtrs[2]=779.511
Cvtrs[3]=865.298
Cvtrs[4]=742.008
Cvtrs[5]=649.592
Cvtrs[6]=798.925
Cvtrs[7]=742.088
Cvtrs[8]=692.732
Cvtrs[9]=472.308

T=2030
Tve=2030
Cvtrs[0]=1038.36
Cvtrs[1]=890.41
Cvtrs[2]=779.511
Cvtrs[3]=865.298
Cvtrs[4]=742.008
Cvtrs[5]=649.592
Cvtrs[6]=798.925
Cvtrs[7]=742.088
Cvtrs[8]=692.732
Cvtrs[9]=472.308

T=2040
Tve=2040
Cvtrs[0]=1038.36
Cvtrs[1]=890.41
Cvtrs[2]=779.511
Cvtrs[3]=865.298
Cvtrs[4]=742.008
Cvtrs[5]=649.592
Cvtrs[6]=798.925
Cvtrs[7]=742.088
Cvtrs[8]=692.732
Cvtrs[9]=472.308

T=2050
Tve=2050
Cvtrs[0]=1038.36
Cvtrs[1]=890.41
Cvtrs[2]=779.511
Cvtrs[3]=865.298
Cvtrs[4]=742.008
Cvtrs[5]=649.592
Cvtrs[6]=798.925
Cvtrs[7]=742.088
Cvtrs[8]=692.732
Cvtrs[9]=472.308

T=2060
Tve=2060
Cvtrs[0]=1038.36
Cvtrs[1]=890.41
Cvtrs[2]=779.511
Cvtrs[3]=865.298
Cvtrs[4]=742.008
Cvtrs[5]=649.592
Cvtrs[6]=798.925
Cvtrs[7]=742.088
Cvtrs[8]=692.732
Cvtrs[9]=472.308

T=2070
Tve=2070
Cvtrs[0]=1038.36
Cvtrs[1]=890.41
Cvtrs[2]=779.511
Cvtrs[3]=865.298
Cvtrs[4]=742.008
Cvtrs[5]=649.592
Cvtrs[6]=798.925
Cvtrs[7]=742.088
Cvtrs[8]=692.732
Cvtrs[9]=472.308

T=2080
Tve=2080
Cvtrs[0]=1038.36
Cvtrs[1]=890.41
Cvtrs[2]=779.511
Cvtrs[3]=865.298
Cvtrs[4]=742.008
Cvtrs[5]=649.592
Cvtrs[6]=798.925
Cvtrs[7]=742.088
Cvtrs[8]=692.732
Cvtrs[9]=472.308

T=2090
Tve=2090
Cvtrs[0]=1038.36
Cvtrs[1]=890.41
Cvtrs[2]=779.511
Cvtrs[3]=865.298
Cvtrs[4]=742.008
Cvtrs[5]=649.592
Cvtrs[6]=798.925
Cvtrs[7]=742.088
Cvtrs[8]=692.732
Cvtrs[9]=472.308

T=2100
Tve=2100
Cvtrs[0]=1038.36
Cvtrs[1]=890.41
Cvtrs[2]=779.511
Cvtrs[3]=865.298
Cvtrs[4]=742.008
Cvtrs[5]=649.592
Cvtrs[6]=798.925
Cvtrs[7]=742.088
Cvtrs[8]=692.732
Cvtrs[9]=472.308

T=2110
Tve=2110
Cvtrs[0]=1038.36
Cvtrs[1]=890.41
Cvtrs[2]=779.511
Cvtrs[3]=865.298
Cvtrs[4]=742.008
Cvtrs[5]=649.592
Cvtrs[6]=798.925
Cvtrs[7]=742.088
Cvtrs[8]=692.732
Cvtrs[9]=472.308

T=2120
Tve=2120
Cvtrs[0]=1038.36
Cvtrs[1]=890.41
Cvtrs[2]=779.511
Cvtrs[3]=865.298
Cvtrs[4]=742.008
Cvtrs[5]=649.592
Cvtrs[6]=798.925
Cvtrs[7]=742.088
Cvtrs[8]=692.732
Cvtrs[9]=472.308

T=2130
Tve=2130
Cvtrs[0]=1038.36
Cvtrs[1]=890.41
Cvtrs[2]=779.511
Cvtrs[3]=865.298
Cvtrs[4]=742.008
Cvtrs[5]=649.592
Cvtrs[6]=798.925
Cvtrs[7]=742.088
Cvtrs[8]=692.732
Cvtrs[9]=472.308

T=2140
Tve=2140
Cvtrs[0]=1038.36
Cvtrs[1]=890.41
Cvtrs[2]=779.511
Cvtrs[3]=865.298
Cvtrs[4]=742.008
Cvtrs[5]=649.592
Cvtrs[6]=798.925
Cvtrs[7]=742.088
Cvtrs[8]=692.732
Cvtrs[9]=472.308

T=2150
Tve=2150
Cvtrs[0]=1038.36
Cvtrs[1]=890.41
Cvtrs[2]=779.511
Cvtrs[3]=865.298
Cvtrs[4]=742.008
Cvtrs[5]=649.592
Cvtrs[6]=798.925
Cvtrs[7]=742.088
Cvtrs[8]=692.732
Cvtrs[9]=472.308

T=2160
Tve=2160
Cvtrs[0]=1038.36
Cvtrs[1]=890.41
Cvtrs[2]=779.511
Cvtrs[3]=865.298
Cvtrs[4]=742.008
Cvtrs[5]=649.592
Cvtrs[6]=798.925
Cvtrs[7]=742.088
Cvtrs[8]=692.732
Cvtrs[9]=472.308

T=2170
Tve=2170
Cvtrs[0]=1038.36
Cvtrs[1]=890.41
Cvtrs[2]=779.511
Cvtrs[3]=865.298
Cvtrs[4]=742.008
Cvtrs[5]=649.592
Cvtrs[6]=798.925
Cvtrs[7]=742.088
Cvtrs[8]=692.732
Cvtrs[9]=472.308

T=2180
Tve=2180
Cvtrs[0]=1038.36
Cvtrs[1]=890.41
Cvtrs[2]=779.511
Cvtrs[3]=865.298
Cvtrs[4]=742.008
Cvtrs[5]=649.592
Cvtrs[6]=798.925
Cvtrs[7]=742.088
Cvtrs[8]=692.732
Cvtrs[9]=472.308

T=2190
Tve=2190
Cvtrs[0]=1038.36
Cvtrs[1]=890.41
Cvtrs[2]=779.511
Cvtrs[3]=865.298
Cvtrs[4]=742.008
Cvtrs[5]=649.592
Cvtrs[6]=798.925
Cvtrs[7]=742.088
Cvtrs[8]=692.732
Cvtrs[9]=472.308

T=2200
Tve=2200
Cvtrs[0]=1038.36
Cvtrs[1]=890.41
Cvtrs[2]=779.511
Cvtrs[3]=865.298
Cvtrs[4]=742.008
Cvtrs[5]=649.592
Cvtrs[6]=798.925
Cvtrs[7]=742.088
Cvtrs[8]=692.732
Cvtrs[9]=472.308

T=2210
Tve=2210
Cvtrs[0]=1038.36
Cvtrs[1]=890.41
Cvtrs[2]=779.511
Cvtrs[3]=865.298
Cvtrs[4]=742.008
Cvtrs[5]=649.592
Cvtrs[6]=798.925
Cvtrs[7]=742.088
Cvtrs[8]=692.732
Cvtrs[9]=472.308

T=2220
Tve=2220
Cvtrs[0]=1038.36
Cvtrs[1]=890.41
Cvtrs[2]=779.511
Cvtrs[3]=865.298
Cvtrs[4]=742.008
Cvtrs[5]=649.592
Cvtrs[6]=798.925
Cvtrs[7]=742.088
Cvtrs[8]=692.732
Cvtrs[9]=472.308

T=2230
Tve=2230
Cvtrs[0]=1038.36
Cvtrs[1]=890.41
Cvtrs[2]=779.511
Cvtrs[3]=865.298
Cvtrs[4]=742.008
Cvtrs[5]=649.592
Cvtrs[6]=798.925
Cvtrs[7]=742.088
Cvtrs[8]=692.732
Cvtrs[9]=472.308

T=2240
Tve=2240
Cvtrs[0]=1038.36
Cvtrs[1]=890.41
Cvtrs[2]=779.511
Cvtrs[3]=865.298
Cvtrs[4]=742.008
Cvtrs[5]=649.592
Cvtrs[6]=798.925
Cvtrs[7]=742.088
Cvtrs[8]=692.732
Cvtrs[9]=472.308

T=2250
Tve=2250
Cvtrs[0]=1038.36
Cvtrs[1]=890.41
Cvtrs[2]=779.511
Cvtrs[3]=865.298
Cvtrs[4]=742.008
Cvtrs[5]=649.592
Cvtrs[6]=798.925
Cvtrs[7]=742.088
Cvtrs[8]=692.732
Cvtrs[9]=472.308

T=2260
Tve=2260
Cvtrs[0]=1038.36
Cvtrs[1]=890.41
Cvtrs[2]=779.511
Cvtrs[3]=865.298
Cvtrs[4]=742.008
Cvtrs[5]=649.592
Cvtrs[6]=798.925
Cvtrs[7]=742.088
Cvtrs[8]=692.732
Cvtrs[9]=472.308

T=2270
Tve=2270
Cvtrs[0]=1038.36
Cvtrs[1]=890.41
Cvtrs[2]=779.511
Cvtrs[3]=865.298
Cvtrs[4]=742.008
Cvtrs[5]=649.592
Cvtrs[6]=798.925
Cvtrs[7]=742.088
Cvtrs[8]=692.732
Cvtrs[9]=472.308

T=2280
Tve=2280
Cvtrs[0]=1038.36
Cvtrs[1]=890.41
Cvtrs[2]=779.511
Cvtrs[3]=865.298
Cvtrs[4]=742.008
Cvtrs[5]=649.592
Cvtrs[6]=798.925
Cvtrs[7]=742.088
Cvtrs[8]=692.732
Cvtrs[9]=472.308

T=2290
Tve=2290
Cvtrs[0]=1038.36
Cvtrs[1]=890.41
Cvtrs[2]=779.511
Cvtrs[3]=865.298
Cvtrs[4]=742.008
Cvtrs[5]=649.592
Cvtrs[6]=798.925
Cvtrs[7]=742.088
Cvtrs[8]=692.732
Cvtrs[9]=472.308

T=2300
Tve=2300
Cvtrs[0]=1038.36
Cvtrs[1]=890.41
Cvtrs[2]=779.511
Cvtrs[3]=865.298
Cvtrs[4]=742.008
Cvtrs[5]=649.592
Cvtrs[6]=798.925
Cvtrs[7]=742.088
Cvtrs[8]=692.732
Cvtrs[9]=472.308

T=2310
Tve=2310
Cvtrs[0]=1038.36
Cvtrs[1]=890.41
Cvtrs[2]=779.511
Cvtrs[3]=865.298
Cvtrs[4]=742.008
Cvtrs[5]=649.592
Cvtrs[6]=798.925
Cvtrs[7]=742.088
Cvtrs[8]=692.732
Cvtrs[9]=472.308

T=2320
Tve=2320
Cvtrs[0]=1038.36
Cvtrs[1]=890.41
Cvtrs[2]=779.511
Cvtrs[3]=865.298
Cvtrs[4]=742.008
Cvtrs[5]=649.592
Cvtrs[6]=798.925
Cvtrs[7]=742.088
Cvtrs[8]=692.732
Cvtrs[9]=472.308

T=2330
Tve=2330
Cvtrs[0]=1038.36
Cvtrs[1]=890.41
Cvtrs[2]=779.511
Cvtrs[3]=865.298
Cvtrs[4]=742.008
Cvtrs[5]=649.592
Cvtrs[6]=798.925
Cvtrs[7]=742.088
Cvtrs[8]=692.732
Cvtrs[9]=472.308

T=2340
Tve=2340
Cvtrs[0]=1038.36
Cvtrs[1]=890.41
Cvtrs[2]=779.511
Cvtrs[3]=865.298
Cvtrs[4]=742.008
Cvtrs[5]=649.592
Cvtrs[6]=798.925
Cvtrs[7]=742.088
Cvtrs[8]=692.732
Cvtrs[9]=472.308

T=2350
Tve=2350
Cvtrs[0]=1038.36
Cvtrs[1]=890.41
Cvtrs[2]=779.511
Cvtrs[3]=865.298
Cvtrs[4]=742.008
Cvtrs[5]=649.592
Cvtrs[6]=798.925
Cvtrs[7]=742.088
Cvtrs[8]=692.732
Cvtrs[9]=472.308

T=2360
Tve=2360
Cvtrs[0]=1038.36
Cvtrs[1]=890.41
Cvtrs[2]=779.511
Cvtrs[3]=865.298
Cvtrs[4]=742.008
Cvtrs[5]=649.592
Cvtrs[6]=798.925
Cvtrs[7]=742.088
Cvtrs[8]=692.732
Cvtrs[9]=472.308

T=2370
Tve=2370
Cvtrs[0]=1038.36
Cvtrs[1]=890.41
Cvtrs[2]=779.511
Cvtrs[3]=865.298
Cvtrs[4]=742.008
Cvtrs[5]=649.592
Cvtrs[6]=798.925
Cvtrs[7]=742.088
Cvtrs[8]=692.732
Cvtrs[9]=472.308

T=2380
Tve=2380
Cvtrs[0]=1038.36
Cvtrs[1]=890.41
Cvtrs[2]=779.511
Cvtrs[3]=865.298
Cvtrs[4]=742.008
Cvtrs[5]=649.592
Cvtrs[6]=798.925
Cvtrs[7]=742.088
Cvtrs[8]=692.732
Cvtrs[9]=472.308

T=2390
Tve=2390
Cvtrs[0]=1038.36
Cvtrs[1]=890.41
Cvtrs[2]=779.511
Cvtrs[3]=865.298
Cvtrs[4]=742.008
Cvtrs[5]=649.592
Cvtrs[6]=798.925
Cvtrs[7]=742.088
Cvtrs[8]=692.732
Cvtrs[9]=472.308

T=2400
Tve=2400
Cvtrs[0]=1038.36
Cvtrs[1]=890.41
Cvtrs[2]=779.511
Cvtrs[3]=865.298
Cvtrs[4]=742.008
Cvtrs[5]=649.592
Cvtrs[6]=798.925
Cvtrs[7]=742.088
Cvtrs[8]=692.732
Cvtrs[9]=472.308

T=2410
Tve=2410
Cvtrs[0]=1038.36
Cvtrs[1]=890.41
Cvtrs[2]=779.511
Cvtrs[3]=865.298
Cvtrs[4]=742.008
Cvtrs[5]=649.592
Cvtrs[6]=798.925
Cvtrs[7]=742.088
Cvtrs[8]=692.732
Cvtrs[9]=472.308

T=2420
Tve=2420
Cvtrs[0]=1038.36
Cvtrs[1]=890.41
Cvtrs[2]=779.511
Cvtrs[3]=865.298
Cvtrs[4]=742.008
Cvtrs[5]=649.592
Cvtrs[6]=798.925
Cvtrs[7]=742.088
Cvtrs[8]=692.732
Cvtrs[9]=472.308

T=2430
Tve=2430
Cvtrs[0]=1038.36
Cvtrs[1]=890.41
Cvtrs[2]=779.511
Cvtrs[3]=865.298
Cvtrs[4]=742.008
Cvtrs[5]=649.592
Cvtrs[6]=798.925
Cvtrs[7]=742.088
Cvtrs[8]=692.732
Cvtrs[9]=472.308

T=2440
Tve=2440
Cvtrs[0]=1038.36
Cvtrs[1]=890.41
Cvtrs[2]=779.511
Cvtrs[3]=865.298
Cvtrs[4]=742.008
Cvtrs[5]=649.592
Cvtrs[6]=798.925
Cvtrs[7]=742.088
Cvtrs[8]=692.732
Cvtrs[9]=472.308

T=2450
Tve=2450
Cvtrs[0]=1038.36
Cvtrs[1]=890.41
Cvtrs[2]=779.511
Cvtrs[3]=865.298
Cvtrs[4]=742.008
Cvtrs[5]=649.592
Cvtrs[6]=798.925
Cvtrs[7]=742.088
Cvtrs[8]=692.732
Cvtrs[9]=472.308

T=2460
Tve=2460
Cvtrs[0]=1038.36
Cvtrs[1]=890.41
Cvtrs[2]=779.511
Cvtrs[3]=865.298
Cvtrs[4]=742.008
Cvtrs[5]=649.592
Cvtrs[6]=798.925
Cvtrs[7]=742.088
Cvtrs[8]=692.732
Cvtrs[9]=472.308

T=2470
Tve=2470
Cvtrs[0]=1038.36
Cvtrs[1]=890.41
Cvtrs[2]=779.511
Cvtrs[3]=865.298
Cvtrs[4]=742.008
Cvtrs[5]=649.592
Cvtrs[6]=798.925
Cvtrs[7]=742.088
Cvtrs[8]=692.732
Cvtrs[9]=472.308

T=2480
Tve=2480
Cvtrs[0]=1038.36
Cvtrs[1]=890.41
Cvtrs[2]=779.511
Cvtrs[3]=865.298
Cvtrs[4]=742.008
Cvtrs[5]=649.592
Cvtrs[6]=798.925
Cvtrs[7]=742.088
Cvtrs[8]=692.732
Cvtrs[9]=472.308

T=2490
Tve=2490
Cvtrs[0]=1038.36
Cvtrs[1]=890.41
Cvtrs[2]=779.511
Cvtrs[3]=865.298
Cvtrs[4]=742.008
Cvtrs[5]=649.592
Cvtrs[6]=798.925
Cvtrs[7]=742.088
Cvtrs[8]=692.732
Cvtrs[9]=472.308

T=2500
Tve=2500
Cvtrs[0]=1038.36
Cvtrs[1]=890.41
Cvtrs[2]=779.511
Cvtrs[3]=865.298
Cvtrs[4]=742.008
Cvtrs[5]=649.592
Cvtrs[6]=798.925
Cvtrs[7]=742.088
Cvtrs[8]=692.732
Cvtrs[9]=472.308

T=2510
Tve=2510
Cvtrs[0]=1038.36
Cvtrs[1]=890.41
Cvtrs[2]=779.511
Cvtrs[3]=865.298
Cvtrs[4]=742.008
Cvtrs[5]=649.592
Cvtrs[6]=798.925
Cvtrs[7]=742.088
Cvtrs[8]=692.732
Cvtrs[9]=472.308

T=2520
Tve=2520
Cvtrs[0]=1038.36
Cvtrs[1]=890.41
Cvtrs[2]=779.511
Cvtrs[3]=865.298
Cvtrs[4]=742.008
Cvtrs[5]=649.592
Cvtrs[6]=798.925
Cvtrs[7]=742.088
Cvtrs[8]=692.732
Cvtrs[9]=472.308

T=2530
Tve=2530
Cvtrs[0]=1038.36
Cvtrs[1]=890.41
Cvtrs[2]=779.511
Cvtrs[3]=865.298
Cvtrs[4]=742.008
Cvtrs[5]=649.592
Cvtrs[6]=798.925
Cvtrs[7]=742.088
Cvtrs[8]=692.732
Cvtrs[9]=472.308

T=2540
Tve=2540
Cvtrs[0]=1038.36
Cvtrs[1]=890.41
Cvtrs[2]=779.511
Cvtrs[3]=865.298
Cvtrs[4]=742.008
Cvtrs[5]=649.592
Cvtrs[6]=798.925
Cvtrs[7]=742.088
Cvtrs[8]=692.732
Cvtrs[9]=472.308

T=2550
Tve=2550
Cvtrs[0]=1038.36
Cvtrs[1]=890.41
Cvtrs[2]=779.511
Cvtrs[3]=865.298
Cvtrs[4]=742.008
Cvtrs[5]=649.592
Cvtrs[6]=798.925
Cvtrs[7]=742.088
Cvtrs[8]=692.732
Cvtrs[9]=472.308

T=2560
Tve=2560
Cvtrs[0]=1038.36
Cvtrs[1]=890.41
Cvtrs[2]=779.511
Cvtrs[3]=865.298
Cvtrs[4]=742.008
Cvtrs[5]=649.592
Cvtrs[6]=798.925
Cvtrs[7]=742.088
Cvtrs[8]=692.732
Cvtrs[9]=472.308

T=2570
Tve=2570
Cvtrs[0]=1038.36
Cvtrs[1]=890.41
Cvtrs[2]=779.511
Cvtrs[3]=865.298
Cvtrs[4]=742.008
Cvtrs[5]=649.592
Cvtrs[6]=798.925
Cvtrs[7]=742.088
Cvtrs[8]=692.732
Cvtrs[9]=472.308

T=2580
Tve=2580
Cvtrs[0]=1038.36
Cvtrs[1]=890.41
Cvtrs[2]=779.511
Cvtrs[3]=865.298
Cvtrs[4]=742.008
Cvtrs[5]=649.592
Cvtrs[6]=798.925
Cvtrs[7]=742.088
Cvtrs[8]=692.732
Cvtrs[9]=472.308

T=2590
Tve=2590
Cvtrs[0]=1038.36
Cvtrs[1]=890.41
Cvtrs[2]=779.511
Cvtrs[3]=865.298
Cvtrs[4]=742.008
Cvtrs[5]=649.592
Cvtrs[6]=798.925
Cvtrs[7]=742.088
Cvtrs[8]=692.732
Cvtrs[9]=472.308

T=2600
Tve=2600
Cvtrs[0]=1038.36
Cvtrs[1]=890.41
Cvtrs[2]=779.511
Cvtrs[3]=865.298
Cvtrs[4]=742.008
Cvtrs[5]=649.592
Cvtrs[6]=798.925
Cvtrs[7]=742.088
Cvtrs[8]=692.732
Cvtrs[9]=472.308

T=2610
Tve=2610
Cvtrs[0]=1038.36
Cvtrs[1]=890.41
Cvtrs[2]=779.511
Cvtrs[3]=865.298
Cvtrs[4]=742.008
Cvtrs[5]=649.592
Cvtrs[6]=798.925
Cvtrs[7]=742.088
Cvtrs[8]=692.732
Cvtrs[9]=472.308

T=2620
Tve=2620
Cvtrs[0]=1038.36
Cvtrs[1]=890.41
Cvtrs[2]=779.511
Cvtrs[3]=865.298
Cvtrs[4]=742.008
Cvtrs[5]=649.592
Cvtrs[6]=798.925
Cvtrs[7]=742.088
Cvtrs[8]=692.732
Cvtrs[9]=472.308

T=2630
Tve=2630
Cvtrs[0]=1038.36
Cvtrs[1]=890.41
Cvtrs[2]=779.511
Cvtrs[3]=865.298
Cvtrs[4]=742.008
Cvtrs[5]=649.592
Cvtrs[6]=798.925
Cvtrs[7]=742.088
Cvtrs[8]=692.732
Cvtrs[9]=472.308

T=2640
Tve=2640
Cvtrs[0]=1038.36
Cvtrs[1]=890.41
Cvtrs[2]=779.511
Cvtrs[3]=865.298
Cvtrs[4]=742.008
Cvtrs[5]=649.592
Cvtrs[6]=798.925
Cvtrs[7]=742.088
Cvtrs[8]=692.732
Cvtrs[9]=472.308

T=2650
Tve=2650
Cvtrs[0]=1038.36
Cvtrs[1]=890.41
Cvtrs[2]=779.511
Cvtrs[3]=865.298
Cvtrs[4]=742.008
Cvtrs[5]=649.592
Cvtrs[6]=798.925
Cvtrs[7]=742.088
Cvtrs[8]=692.732
Cvtrs[9]=472.308

T=2660
Tve=2660
Cvtrs[0]=1038.36
Cvtrs[1]=890.41
Cvtrs[2]=779.511
Cvtrs[3]=865.298
Cvtrs[4]=742.008
Cvtrs[5]=649.592
Cvtrs[6]=798.925
Cvtrs[7]=742.088
Cvtrs[8]=692.732
Cvtrs[9]=472.308

T=2670
Tve=2670
Cvtrs[0]=1038.36
Cvtrs[1]=890.41
Cvtrs[2]=779.511
Cvtrs[3]=865.298
Cvtrs[4]=742.008
Cvtrs[5]=649.592
Cvtrs[6]=798.925
Cvtrs[7]=742.088
Cvtrs[8]=692.732
Cvtrs[9]=472.308

T=2680
Tve=2680
Cvtrs[0]=1038.36
Cvtrs[1]=890.41
Cvtrs[2]=779.511
Cvtrs[3]=865.298
Cvtrs[4]=742.008
Cvtrs[5]=649.592
Cvtrs[6]=798.925
Cvtrs[7]=742.088
Cvtrs[8]=692.732
Cvtrs[9]=472.308

T=2690
Tve=2690
Cvtrs[0]=1038.36
Cvtrs[1]=890.41
Cvtrs[2]=779.511
Cvtrs[3]=865.298
Cvtrs[4]=742.008
Cvtrs[5]=649.592
Cvtrs[6]=798.925
Cvtrs[7]=742.088
Cvtrs[8]=692.732
Cvtrs[9]=472.308

T=2700
Tve=2700
Cvtrs[0]=1038.36
Cvtrs[1]=890.41
Cvtrs[2]=779.511
Cvtrs[3]=865.298
Cvtrs[4]=742.008
Cvtrs[5]=649.592
Cvtrs[6]=798.925
Cvtrs[7]=742.088
Cvtrs[8]=692.732
Cvtrs[9]=472.308

T=2710
Tve=2710
Cvtrs[0]=1038.36
Cvtrs[1]=890.41
Cvtrs[2]=779.511
Cvtrs[3]=865.298
Cvtrs[4]=742.008
Cvtrs[5]=649.592
Cvtrs[6]=798.925
Cvtrs[7]=742.088
Cvtrs[8]=692.732
Cvtrs[9]=472.308

T=2720
Tve=2720
Cvtrs[0]=1038.36
Cvtrs[1]=890.41
Cvtrs[2]=779.511
Cvtrs[3]=865.298
Cvtrs[4]=742.008
Cvtrs[5]=649.592
Cvtrs[6]=798.925
Cvtrs[7]=742.088
Cvtrs[8]=692.732
Cvtrs[9]=472.308

T=2730
Tve=2730
Cvtrs[0]=1038.36
Cvtrs[1]=890.41
Cvtrs[2]=779.511
Cvtrs[3]=865.298
Cvtrs[4]=742.008
Cvtrs[5]=649.592
Cvtrs[6]=798.925
Cvtrs[7]=742.088
Cvtrs[8]=692.732
Cvtrs[9]=472.308

T=2740
Tve=2740
Cvtrs[0]=1038.36
Cvtrs[1]=890.41
Cvtrs[2]=779.511
Cvtrs[3]=865.298
Cvtrs[4]=742.008
Cvtrs[5]=649.592
Cvtrs[6]=798.925
Cvtrs[7]=742.088
Cvtrs[8]=692.732
Cvtrs[9]=472.308

T=2750
Tve=2750
Cvtrs[0]=1038.36
Cvtrs[1]=890.41
Cvtrs[2]=779.511
Cvtrs[3]=865.298
Cvtrs[4]=742.008
Cvtrs[5]=649.592
Cvtrs[6]=798.925
Cvtrs[7]=742.088
Cvtrs[8]=692.732
Cvtrs[9]=472.308

T=2760
Tve=2760
Cvtrs[0]=1038.36
Cvtrs[1]=890.41
Cvtrs[2]=779.511
Cvtrs[3]=865.298
Cvtrs[4]=742.008
Cvtrs[5]=649.592
Cvtrs[6]=798.925
Cvtrs[7]=742.088
Cvtrs[8]=692.732
Cvtrs[9]=472.308

T=2770
Tve=2770
Cvtrs[0]=1038.36
Cvtrs[1]=890.41
Cvtrs[2]=779.511
Cvtrs[3]=865.298
Cvtrs[4]=742.008
Cvtrs[5]=649.592
Cvtrs[6]=798.925
Cvtrs[7]=742.088
Cvtrs[8]=692.732
Cvtrs[9]=472.308

T=2780
Tve=2780
Cvtrs[0]=1038.36
Cvtrs[1]=890.41
Cvtrs[2]=779.511
Cvtrs[3]=865.298
Cvtrs[4]=742.008
Cvtrs[5]=649.592
Cvtrs[6]=798.925
Cvtrs[7]=742.088
Cvtrs[8]=692.732
Cvtrs[9]=472.308

T=2790
Tve=2790
Cvtrs[0]=1038.36
Cvtrs[1]=890.41
Cvtrs[2]=779.511
Cvtrs[3]=865.298
Cvtrs[4]=742.008
Cvtrs[5]=649.592
Cvtrs[6]=798.925
Cvtrs[7]=742.088
Cvtrs[8]=692.732
Cvtrs[9]=472.308

T=2800
Tve=2800
Cvtrs[0]=1038.36
Cvtrs[1]=890.41
Cvtrs[2]=779.511
Cvtrs[3]=865.298
Cvtrs[4]=742.008
Cvtrs[5]=649.592
Cvtrs[6]=798.925
Cvtrs[7]=742.088
Cvtrs[8]=692.732
Cvtrs[9]=472.308

T=2810
Tve=2810
Cvtrs[0]=1038.36
Cvtrs[1]=890.41
Cvtrs[2]=779.511
Cvtrs[3]=865.298
Cvtrs[4]=742.008
Cvtrs[5]=649.592
Cvtrs[6]=798.925
Cvtrs[7]=742.088
Cvtrs[8]=692.732
Cvtrs[9]=472.308

T=2820
Tve=2820
Cvtrs[0]=1038.36
Cvtrs[1]=890.41
Cvtrs[2]=779.511
Cvtrs[3]=865.298
Cvtrs[4]=742.008
Cvtrs[5]=649.592
Cvtrs[6]=798.925
Cvtrs[7]=742.088
Cvtrs[8]=692.732
Cvtrs[9]=472.308

T=2830
Tve=2830
Cvtrs[0]=1038.36
Cvtrs[1]=890.41
Cvtrs[2]=779.511
Cvtrs[3]=865.298
Cvtrs[4]=742.008
Cvtrs[5]=649.592
Cvtrs[6]=798.925
Cvtrs[7]=742.088
Cvtrs[8]=692.732
Cvtrs[9]=472.308

T=2840
Tve=2840
Cvtrs[0]=1038.36
Cvtrs[1]=890.41
Cvtrs[2]=779.511
Cvtrs[3]=865.298
Cvtrs[4]=742.008
Cvtrs[5]=649.592
Cvtrs[6]=798.925
Cvtrs[7]=742.088
Cvtrs[8]=692.732
Cvtrs[9]=472.308

T=2850
Tve=2850
Cvtrs[0]=1038.36
Cvtrs[1]=890.41
Cvtrs[2]=779.511
Cvtrs[3]=865.298
Cvtrs[4]=742.008
Cvtrs[5]=649.592
Cvtrs[6]=798.925
Cvtrs[7]=742.088
Cvtrs[8]=692.732
Cvtrs[9]=472.308

T=2860
Tve=2860
Cvtrs[0]=1038.36
Cvtrs[1]=890.41
Cvtrs[2]=779.511
Cvtrs[3]=865.298
Cvtrs[4]=742.008
Cvtrs[5]=649.592
Cvtrs[6]=798.925
Cvtrs[7]=742.088
Cvtrs[8]=692.732
Cvtrs[9]=472.308

T=2870
Tve=2870
Cvtrs[0]=1038.36
Cvtrs[1]=890.41
Cvtrs[2]=779.511
Cvtrs[3]=865.298
Cvtrs[4]=742.008
Cvtrs[5]=649.592
Cvtrs[6]=798.925
Cvtrs[7]=742.088
Cvtrs[8]=692.732
Cvtrs[9]=472.308

T=2880
Tve=2880
Cvtrs[0]=1038.36
Cvtrs[1]=890.41
Cvtrs[2]=779.511
Cvtrs[3]=865.298
Cvtrs[4]=742.008
Cvtrs[5]=649.592
Cvtrs[6]=798.925
Cvtrs[7]=742.088
Cvtrs[8]=692.732
Cvtrs[9]=472.308

T=2890
Tve=2890
Cvtrs[0]=1038.36
Cvtrs[1]=890.41
Cvtrs[2]=779.511
Cvtrs[3]=865.298
Cvtrs[4]=742.008
Cvtrs[5]=649.592
Cvtrs[6]=798.925
Cvtrs[7]=742.088
Cvtrs[8]=692.732
Cvtrs[9]=472.308

T=2900
Tve=2900
Cvtrs[0]=1038.36
Cvtrs[1]=890.41
Cvtrs[2]=779.511
Cvtrs[3]=865.298
Cvtrs[4]=742.008
Cvtrs[5]=649.592
Cvtrs[6]=798.925
Cvtrs[7]=742.088
Cvtrs[8]=692.732
Cvtrs[9]=472.308

T=2910
Tve=2910
Cvtrs[0]=1038.36
Cvtrs[1]=890.41
Cvtrs[2]=779.511
Cvtrs[3]=865.298
Cvtrs[4]=742.008
Cvtrs[5]=649.592
Cvtrs[6]=798.925
Cvtrs[7]=742.088
Cvtrs[8]=692.732
Cvtrs[9]=472.308

T=2920
Tve=2920
Cvtrs[0]=1038.36
Cvtrs[1]=890.41
Cvtrs[2]=779.511
Cvtrs[3]=865.298
Cvtrs[4]=742.008
Cvtrs[5]=649.592
Cvtrs[6]=798.925
Cvtrs[7]=742.088
Cvtrs[8]=692.732
Cvtrs[9]=472.308

T=2930
Tve=2930
Cvtrs[0]=1038.36
Cvtrs[1]=890.41
Cvtrs[2]=779.511
Cvtrs[3]=865.298
Cvtrs[4]=742.008
Cvtrs[5]=649.592
Cvtrs[6]=798.925
Cvtrs[7]=742.088
Cvtrs[8]=692.732
Cvtrs[9]=472.308

T=2940
Tve=2940
Cvtrs[0]=1038.36
Cvtrs[1]=890.41
Cvtrs[2]=779.511
Cvtrs[3]=865.298
Cvtrs[4]=742.008
Cvtrs[5]=649.592
Cvtrs[6]=798.925
Cvtrs[7]=742.088
Cvtrs[8]=692.732
Cvtrs[9]=472.308

T=2950
Tve=2950
Cvtrs[0]=1038.36
Cvtrs[1]=890.41
Cvtrs[2]=779.511
Cvtrs[3]=865.298
Cvtrs[4]=742.008
Cvtrs[5]=649.592
Cvtrs[6]=798.925
Cvtrs[7]=742.088
Cvtrs[8]=692.732
Cvtrs[9]=472.308

T=2960
Tve=2960
Cvtrs[0]=1038.36
Cvtrs[1]=890.41
Cvtrs[2]=779.511
Cvtrs[3]=865.298
Cvtrs[4]=742.008
Cvtrs[5]=649.592
Cvtrs[6]=798.925
Cvtrs[7]=742.088
Cvtrs[8]=692.732
Cvtrs[9]=472.308

T=2970
Tve=2970
Cvtrs[0]=1038.36
Cvtrs[1]=890.41
Cvtrs[2]=779.511
Cvtrs[3]=865.298
Cvtrs[4]=742.008
Cvtrs[5]=649.592
Cvtrs[6]=798.925
Cvtrs[7]=742.088
Cvtrs[8]=692.732
Cvtrs[9]=472.308

T=2980
Tve=2980
Cvtrs[0]=1038.36
Cvtrs[1]=890.41
Cvtrs[2]=779.511
Cvtrs[3]=865.298
Cvtrs[4]=742.008
Cvtrs[5]=649.592
Cvtrs[6]=798.925
Cvtrs[7]=742.088
Cvtrs[8]=692.732
Cvtrs[9]=472.308

T=2990
Tve=2990
Cvtrs[0]=1038.36
Cvtrs[1]=890.41
Cvtrs[2]=779.511
Cvtrs[3]=865.298
Cvtrs[4]=742.008
Cvtrs[5]=649.592
Cvtrs[6]=798.925
Cvtrs[7]=742.088
Cvtrs[8]=692.732
Cvtrs[9]=472.308

T=3000
Tve=3000
Cvtrs[0]=1038.36
Cvtrs[1]=890.41
Cvtrs[2]=779.511
Cvtrs[3]=865.298
Cvtrs[4]=742.008
Cvtrs[5]=649.592
Cvtrs[6]=798.925
Cvtrs[7]=742.088
Cvtrs[8]=692.732
Cvtrs[9]=472.308

T=3010
Tve=3010
Cvtrs[0]=1038.36
Cvtrs[1]=890.41
Cvtrs[2]=779.511
Cvtrs[3]=865.298
Cvtrs[4]=742.008
Cvtrs[5]=649.592
Cvtrs[6]=798.925
Cvtrs[7]=742.088
Cvtrs[8]=692.732
Cvtrs[9]=472.308

T=3020
Tve=3020
Cvtrs[0]=1038.36
Cvtrs[1]=890.41
Cvtrs[2]=779.511
Cvtrs[3]=865.298
Cvtrs[4]=742.008
Cvtrs[5]=649.592
Cvtrs[6]=798.925
Cvtrs[7]=742.088
Cvtrs[8]=692.732
Cvtrs[9]=472.308

T=3030
Tve=3030
Cvtrs[0]=1038.36
Cvtrs[1]=890.41
Cvtrs[2]=779.511
Cvtrs[3]=865.298
Cvtrs[4]=742.008
Cvtrs[5]=649.592
Cvtrs[6]=798.925
Cvtrs[7]=742.088
Cvtrs[8]=692.732
Cvtrs[9]=472.308

T=3040
Tve=3040
Cvtrs[0]=1038.36
Cvtrs[1]=890.41
Cvtrs[2]=779.511
Cvtrs[3]=865.298
Cvtrs[4]=742.008
Cvtrs[5]=649.592
Cvtrs[6]=798.925
Cvtrs[7]=742.088
Cvtrs[8]=692.732
Cvtrs[9]=472.308

T=3050
Tve=3050
Cvtrs[0]=1038.36
Cvtrs[1]=890.41
Cvtrs[2]=779.511
Cvtrs[3]=865.298
Cvtrs[4]=742.008
Cvtrs[5]=649.592
Cvtrs[6]=798.925
Cvtrs[7]=742.088
Cvtrs[8]=692.732
Cvtrs[9]=472.308

T=3060
Tve=3060
Cvtrs[0]=1038.36
Cvtrs[1]=890.41
Cvtrs[2]=779.511
Cvtrs[3]=865.298
Cvtrs[4]=742.008
Cvtrs[5]=649.592
Cvtrs[6]=798.925
Cvtrs[7]=742.088
Cvtrs[8]=692.732
Cvtrs[9]=472.308

T=3070
Tve=3070
Cvtrs[0]=1038.36
Cvtrs[1]=890.41
Cvtrs[2]=779.511
Cvtrs[3]=865.298
Cvtrs[4]=742.008
Cvtrs[5]=649.592
Cvtrs[6]=798.925
Cvtrs[7]=742.088
Cvtrs[8]=692.732
Cvtrs[9]=472.308

T=3080
Tve=3080
Cvtrs[0]=1038.36
Cvtrs[1]=890.41
Cvtrs[2]=779.511
Cvtrs[3]=865.298
Cvtrs[4]=742.008
Cvtrs[5]=649.592
Cvtrs[6]=798.925
Cvtrs[7]=742.088
Cvtrs[8]=692.732
Cvtrs[9]=472.308

T=3090
Tve=3090
Cvtrs[0]=1038.36
Cvtrs[1]=890.41
Cvtrs[2]=779.511
Cvtrs[3]=865.298
Cvtrs[4]=742.008
Cvtrs[5]=649.592
Cvtrs[6]=798.925
Cvtrs[7]=742.088
Cvtrs[8]=692.732
Cvtrs[9]=472.308

T=3100
Tve=3100
Cvtrs[0]=1038.36
Cvtrs[1]=890.41
Cvtrs[2]=779.511
Cvtrs[3]=865.298
Cvtrs[4]=742.008
Cvtrs[5]=649.592
Cvtrs[6]=798.925
Cvtrs[7]=742.088
Cvtrs[8]=692.732
Cvtrs[9]=472.308

T=3110
Tve=3110
Cvtrs[0]=1038.36
Cvtrs[1]=890.41
Cvtrs[2]=779.511
Cvtrs[3]=865.298
Cvtrs[4]=742.008
Cvtrs[5]=649.592
Cvtrs[6]=798.925
Cvtrs[7]=742.088
Cvtrs[8]=692.732
Cvtrs[9]=472.308

T=3120
Tve=3120
Cvtrs[0]=1038.36
Cvtrs[1]=890.41
Cvtrs[2]=779.511
Cvtrs[3]=865.298
Cvtrs[4]=742.008
Cvtrs[5]=649.592
Cvtrs[6]=798.925
Cvtrs[7]=742.088
Cvtrs[8]=692.732
Cvtrs[9]=472.308

T=3130
Tve=3130
Cvtrs[0]=1038.36
Cvtrs[1]=890.41
Cvtrs[2]=779.511
Cvtrs[3]=865.298
Cvtrs[4]=742.008
Cvtrs[5]=649.592
Cvtrs[6]=798.925
Cvtrs[7]=742.088
Cvtrs[8]=692.732
Cvtrs[9]=472.308

T=3140
Tve=3140
Cvtrs[0]=1038.36
Cvtrs[1]=890.41
Cvtrs[2]=779.511
Cvtrs[3]=865.298
Cvtrs[4]=742.008
Cvtrs[5]=649.592
Cvtrs[6]=798.925
Cvtrs[7]=742.088
Cvtrs[8]=692.732
Cvtrs[9]=472.308

T=3150
Tve=3150
Cvtrs[0]=1038.36
Cvtrs[1]=890.41
Cvtrs[2]=779.511
Cvtrs[3]=865.298
Cvtrs[4]=742.008
Cvtrs[5]=649.592
Cvtrs[6]=798.925
Cvtrs[7]=742.088
Cvtrs[8]=692.732
Cvtrs[9]=472.308

T=3160
Tve=3160
Cvtrs[0]=1038.36
Cvtrs[1]=890.41
Cvtrs[2]=779.511
Cvtrs[3]=865.298
Cvtrs[4]=742.008
Cvtrs[5]=649.592
Cvtrs[6]=798.925
Cvtrs[7]=742.088
Cvtrs[8]=692.732
Cvtrs[9]=472.308

T=3170
Tve=3170
Cvtrs[0]=1038.36
Cvtrs[1]=890.41
Cvtrs[2]=779.511
Cvtrs[3]=865.298
Cvtrs[4]=742.008
Cvtrs[5]=649.592
Cvtrs[6]=798.925
Cvtrs[7]=742.088
Cvtrs[8]=692.732
Cvtrs[9]=472.308

T=3180
Tve=3180
Cvtrs[0]=1038.36
Cvtrs[1]=890.41
Cvtrs[2]=779.511
Cvtrs[3]=865.298
Cvtrs[4]=742.008
Cvtrs[5]=649.592
Cvtrs[6]=798.925
Cvtrs[7]=742.088
Cvtrs[8]=692.732
Cvtrs[9]=472.308

T=3190
Tve=3190
Cvtrs[0]=1038.36
Cvtrs[1]=890.41
Cvtrs[2]=779.511
Cvtrs[3]=865.298
Cvtrs[4]=742.008
Cvtrs[5]=649.592
Cvtrs[6]=798.925
Cvtrs[7]=742.088
Cvtrs[8]=692.732
Cvtrs[9]=472.308

T=3200
Tve=3200
Cvtrs[0]=1038.36
Cvtrs[1]=890.41
Cvtrs[2]=779.511
Cvtrs[3]=865.298
Cvtrs[4]=742.008
Cvtrs[5]=649.592
Cvtrs[6]=798.925
Cvtrs[7]=742.088
Cvtrs[8]=692.732
Cvtrs[9]=472.308

T=3210
Tve=3210
Cvtrs[0]=1038.36
Cvtrs[1]=890.41
Cvtrs[2]=779.511
Cvtrs[3]=865.298
Cvtrs[4]=742.008
Cvtrs[5]=649.592
Cvtrs[6]=798.925
Cvtrs[7]=742.088
Cvtrs[8]=692.732
Cvtrs[9]=472.308

T=3220
Tve=3220
Cvtrs[0]=1038.36
Cvtrs[1]=890.41
Cvtrs[2]=779.511
Cvtrs[3]=865.298
Cvtrs[4]=742.008
Cvtrs[5]=649.592
Cvtrs[6]=798.925
Cvtrs[7]=742.088
Cvtrs[8]=692.732
Cvtrs[9]=472.308

T=3230
Tve=3230
Cvtrs[0]=1038.36
Cvtrs[1]=890.41
Cvtrs[2]=779.511
Cvtrs[3]=865.298
Cvtrs[4]=742.008
Cvtrs[5]=649.592
Cvtrs[6]=798.925
Cvtrs[7]=742.088
Cvtrs[8]=692.732
Cvtrs[9]=472.308

T=3240
Tve=3240
Cvtrs[0]=1038.36
Cvtrs[1]=890.41
Cvtrs[2]=779.511
Cvtrs[3]=865.298
Cvtrs[4]=742.008
Cvtrs[5]=649.592
Cvtrs[6]=798.925
Cvtrs[7]=742.088
Cvtrs[8]=692.732
Cvtrs[9]=472.308

T=3250
Tve=3250
Cvtrs[0]=1038.36
Cvtrs[1]=890.41
Cvtrs[2]=779.511
Cvtrs[3]=865.298
Cvtrs[4]=742.008
Cvtrs[5]=649.592
Cvtrs[6]=798.925
Cvtrs[7]=742.088
Cvtrs[8]=692.732
Cvtrs[9]=472.308

T=3260
Tve=3260
Cvtrs[0]=1038.36
Cvtrs[1]=890.41
Cvtrs[2]=779.511
Cvtrs[3]=865.298
Cvtrs[4]=742.008
Cvtrs[5]=649.592
Cvtrs[6]=798.925
Cvtrs[7]=742.088
Cvtrs[8]=692.732
Cvtrs[9]=472.308

T=3270
Tve=3270
Cvtrs[0]=1038.36
Cvtrs[1]=890.41
Cvtrs[2]=779.511
Cvtrs[3]=865.298
Cvtrs[4]=742.008
Cvtrs[5]=649.592
Cvtrs[6]=798.925
Cvtrs[7]=742.088
Cvtrs[8]=692.732
Cvtrs[9]=472.308

T=3280
Tve=3280
Cvtrs[0]=1038.36
Cvtrs[1]=890.41
Cvtrs[2]=779.511
Cvtrs[3]=865.298
Cvtrs[4]=742.008
Cvtrs[5]=649.592
Cvtrs[6]=798.925
Cvtrs[7]=742.088
Cvtrs[8]=692.732
Cvtrs[9]=472.308

T=3290
Tve=3290
Cvtrs[0]=1038.36
Cvtrs[1]=890.41
Cvtrs[2]=779.511
Cvtrs[3]=865.298
Cvtrs[4]=742.008
Cvtrs[5]=649.592
Cvtrs[6]=798.925
Cvtrs[7]=742.088
Cvtrs[8]=692.732
Cvtrs[9]=472.308

T=3300
Tve=3300
Cvtrs[0]=1038.36
Cvtrs[1]=890.41
Cvtrs[2]=779.511
Cvtrs[3]=865.298
Cvtrs[4]=742.008
Cvtrs[5]=649.592
Cvtrs[6]=798.925
Cvtrs[7]=742.088
Cvtrs[8]=692.732
Cvtrs[9]=472.308

T=3310
Tve=3310
Cvtrs[0]=1038.36
Cvtrs[1]=890.41
Cvtrs[2]=779.511
Cvtrs[3]=865.298
Cvtrs[4]=742.008
Cvtrs[5]=649.592
Cvtrs[6]=798.925
Cvtrs[7]=742.088
Cvtrs[8]=692.732
Cvtrs[9]=472.308

T=3320
Tve=3320
Cvtrs[0]=1038.36
Cvtrs[1]=890.41
Cvtrs[2]=779.511
Cvtrs[3]=865.298
Cvtrs[4]=742.008
Cvtrs[5]=649.592
Cvtrs[6]=798.925
Cvtrs[7]=742.088
Cvtrs[8]=692.732
Cvtrs[9]=472.308

T=3330
Tve=3330
Cvtrs[0]=1038.36
Cvtrs[1]=890.41
Cvtrs[2]=779.511
Cvtrs[3]=865.298
Cvtrs[4]=742.008
Cvtrs[5]=649.592
Cvtrs[6]=798.925
Cvtrs[7]=742.088
Cvtrs[8]=692.732
Cvtrs[9]=472.308

T=3340
Tve=3340
Cvtrs[0]=1038.36
Cvtrs[1]=890.41
Cvtrs[2]=779.511
Cvtrs[3]=865.298
Cvtrs[4]=742.008
Cvtrs[5]=649.592
Cvtrs[6]=798.925
Cvtrs[7]=742.088
Cvtrs[8]=692.732
Cvtrs[9]=472.308

T=3350
Tve=3350
Cvtrs[0]=1038.36
Cvtrs[1]=890.41
Cvtrs[2]=779.511
Cvtrs[3]=865.298
Cvtrs[4]=742.008
Cvtrs[5]=649.592
Cvtrs[6]=798.925
Cvtrs[7]=742.088
Cvtrs[8]=692.732
Cvtrs[9]=472.308

T=3360
Tve=3360
Cvtrs[0]=1038.36
Cvtrs[1]=890.41
Cvtrs[2]=779.511
Cvtrs[3]=865.298
Cvtrs[4]=742.008
Cvtrs[5]=649.592
Cvtrs[6]=798.925
Cvtrs[7]=742.088
Cvtrs[8]=692.732
Cvtrs[9]=472.308

T=3370
Tve=3370
Cvtrs[0]=1038.36
Cvtrs[1]=890.41
Cvtrs[2]=779.511
Cvtrs[3]=865.298
Cvtrs[4]=742.008
Cvtrs[5]=649.592
Cvtrs[6]=798.925
Cvtrs[7]=742.088
Cvtrs[8]=692.732
Cvtrs[9]=472.308

T=3380
Tve=3380
Cvtrs[0]=1038.36
Cvtrs[1]=890.41
Cvtrs[2]=779.511
Cvtrs[3]=865.298
Cvtrs[4]=742.008
Cvtrs[5]=649.592
Cvtrs[6]=798.925
Cvtrs[7]=742.088
Cvtrs[8]=692.732
Cvtrs[9]=472.308

T=3390
Tve=3390
Cvtrs[0]=1038.36
Cvtrs[1]=890.41
Cvtrs[2]=779.511
Cvtrs[3]=865.298
Cvtrs[4]=742.008
Cvtrs[5]=649.592
Cvtrs[6]=798.925
Cvtrs[7]=742.088
Cvtrs[8]=692.732
Cvtrs[9]=472.308

T=3400
Tve=3400
Cvtrs[0]=1038.36
Cvtrs[1]=890.41
Cvtrs[2]=779.511
Cvtrs[3]=865.298
Cvtrs[4]=742.008
Cvtrs[5]=649.592
Cvtrs[6]=798.925
Cvtrs[7]=742.088
Cvtrs[8]=692.732
Cvtrs[9]=472.308

T=3410
Tve=3410
Cvtrs[0]=1038.36
Cvtrs[1]=890.41
Cvtrs[2]=779.511
Cvtrs[3]=865.298
Cvtrs[4]=742.008
Cvtrs[5]=649.592
Cvtrs[6]=798.925
Cvtrs[7]=742.088
Cvtrs[8]=692.732
Cvtrs[9]=472.308

T=3420
Tve=3420
Cvtrs[0]=1038.36
Cvtrs[1]=890.41
Cvtrs[2]=779.511
Cvtrs[3]=865.298
Cvtrs[4]=742.008
Cvtrs[5]=649.592
Cvtrs[6]=798.925
Cvtrs[7]=742.088
Cvtrs[8]=692.732
Cvtrs[9]=472.308

T=3430
Tve=3430
Cvtrs[0]=1038.36
Cvtrs[1]=890.41
Cvtrs[2]=779.511
Cvtrs[3]=865.298
Cvtrs[4]=742.008
Cvtrs[5]=649.592
Cvtrs[6]=798.925
Cvtrs[7]=742.088
Cvtrs[8]=692.732
Cvtrs[9]=472.308

T=3440
Tve=3440
Cvtrs[0]=1038.36
Cvtrs[1]=890.41
Cvtrs[2]=779.511
Cvtrs[3]=865.298
Cvtrs[4]=742.008
Cvtrs[5]=649.592
Cvtrs[6]=798.925
Cvtrs[7]=742.088
Cvtrs[8]=692.732
Cvtrs[9]=472.308

T=3450
Tve=3450
Cvtrs[0]=1038.36
Cvtrs[1]=890.41
Cvtrs[2]=779.511
Cvtrs[3]=865.298
Cvtrs[4]=742.008
Cvtrs[5]=649.592
Cvtrs[6]=798.925
Cvtrs[7]=742.088
Cvtrs[8]=692.732
Cvtrs[9]=472.308

T=3460
Tve=3460
Cvtrs[0]=1038.36
Cvtrs[1]=890.41
Cvtrs[2]=779.511
Cvtrs[3]=865.298
Cvtrs[4]=742.008
Cvtrs[5]=649.592
Cvtrs[6]=798.925
Cvtrs[7]=742.088
Cvtrs[8]=692.732
Cvtrs[9]=472.308

T=3470
Tve=3470
Cvtrs[0]=1038.36
Cvtrs[1]=890.41
Cvtrs[2]=779.511
Cvtrs[3]=865.298
Cvtrs[4]=742.008
Cvtrs[5]=649.592
Cvtrs[6]=798.925
Cvtrs[7]=742.088
Cvtrs[8]=692.732
Cvtrs[9]=472.308

T=3480
Tve=3480
Cvtrs[0]=1038.36
Cvtrs[1]=890.41
Cvtrs[2]=779.511
Cvtrs[3]=865.298
Cvtrs[4]=742.008
Cvtrs[5]=649.592
Cvtrs[6]=798.925
Cvtrs[7]=742.088
Cvtrs[8]=692.732
Cvtrs[9]=472.308

T=3490
Tve=3490
Cvtrs[0]=1038.36
Cvtrs[1]=890.41
Cvtrs[2]=779.511
Cvtrs[3]=865.298
Cvtrs[4]=742.008
Cvtrs[5]=649.592
Cvtrs[6]=798.925
Cvtrs[7]=742.088
Cvtrs[8]=692.732
Cvtrs[9]=472.308

T=3500
Tve=3500
Cvtrs[0]=1038.36
Cvtrs[1]=890.41
Cvtrs[2]=779.511
Cvtrs[3]=865.298
Cvtrs[4]=742.008
Cvtrs[5]=649.592
Cvtrs[6]=798.925
Cvtrs[7]=742.088
Cvtrs[8]=692.732
Cvtrs[9]=472.308

T=3510
Tve=3510
Cvtrs[0]=1038.36
Cvtrs[1]=890.41
Cvtrs[2]=779.511
Cvtrs[3]=865.298
Cvtrs[4]=742.008
Cvtrs[5]=649.592
Cvtrs[6]=798.925
Cvtrs[7]=742.088
Cvtrs[8]=692.732
Cvtrs[9]=472.308

T=3520
Tve=3520
Cvtrs[0]=1038.36
Cvtrs[1]=890.41
Cvtrs[2]=779.511
Cvtrs[3]=865.298
Cvtrs[4]=742.008
Cvtrs[5]=649.592
Cvtrs[6]=798.925
Cvtrs[7]=742.088
Cvtrs[8]=692.732
Cvtrs[9]=472.308

T=3530
Tve=3530
Cvtrs[0]=1038.36
Cvtrs[1]=890.41
Cvtrs[2]=779.511
Cvtrs[3]=865.298
Cvtrs[4]=742.008
Cvtrs[5]=649.592
Cvtrs[6]=798.925
Cvtrs[7]=742.088
Cvtrs[8]=692.732
Cvtrs[9]=472.308

T=3540
Tve=3540
Cvtrs[0]=1038.36
Cvtrs[1]=890.41
Cvtrs[2]=779.511
Cvtrs[3]=865.298
Cvtrs[4]=742.008
Cvtrs[5]=649.592
Cvtrs[6]=798.925
Cvtrs[7]=742.088
Cvtrs[8]=692.732
Cvtrs[9]=472.308

T=3550
Tve=3550
Cvtrs[0]=1038.36
Cvtrs[1]=890.41
Cvtrs[2]=779.511
Cvtrs[3]=865.298
Cvtrs[4]=742.008
Cvtrs[5]=649.592
Cvtrs[6]=798.925
Cvtrs[7]=742.088
Cvtrs[8]=692.732
Cvtrs[9]=472.308

T=3560
Tve=3560
Cvtrs[0]=1038.36
Cvtrs[1]=890.41
Cvtrs[2]=779.511
Cvtrs[3]=865.298
Cvtrs[4]=742.008
Cvtrs[5]=649.592
Cvtrs[6]=798.925
Cvtrs[7]=742.088
Cvtrs[8]=692.732
Cvtrs[9]=472.308

T=3570
Tve=3570
Cvtrs[0]=1038.36
Cvtrs[1]=890.41
Cvtrs[2]=779.511
Cvtrs[3]=865.298
Cvtrs[4]=742.008
Cvtrs[5]=649.592
Cvtrs[6]=798.925
Cvtrs[7]=742.088
Cvtrs[8]=692.732
Cvtrs[9]=472.308

T=3580
Tve=3580
Cvtrs[0]=1038.36
Cvtrs[1]=890.41
Cvtrs[2]=779.511
Cvtrs[3]=865.298
Cvtrs[4]=742.008
Cvtrs[5]=649.592
Cvtrs[6]=798.925
Cvtrs[7]=742.088
Cvtrs[8]=692.732
Cvtrs[9]=472.308

T=3590
Tve=3590
Cvtrs[0]=1038.36
Cvtrs[1]=890.41
Cvtrs[2]=779.511
Cvtrs[3]=865.298
Cvtrs[4]=742.008
Cvtrs[5]=649.592
Cvtrs[6]=798.925
Cvtrs[7]=742.088
Cvtrs[8]=692.732
Cvtrs[9]=472.308

T=3600
Tve=3600
Cvtrs[0]=1038.36
Cvtrs[1]=890.41
Cvtrs[2]=779.511
Cvtrs[3]=865.298
Cvtrs[4]=742.008
Cvtrs[5]=649.592
Cvtrs[6]=798.925
Cvtrs[7]=742.088
Cvtrs[8]=692.732
Cvtrs[9]=472.308

T=3610
Tve=3610
Cvtrs[0]=1038.36
Cvtrs[1]=890.41
Cvtrs[2]=779.511
Cvtrs[3]=865.298
Cvtrs[4]=742.008
Cvtrs[5]=649.592
Cvtrs[6]=798.925
Cvtrs[7]=742.088
Cvtrs[8]=692.732
Cvtrs[9]=472.308

T=3620
Tve=3620
Cvtrs[0]=1038.36
Cvtrs[1]=890.41
Cvtrs[2]=779.511
Cvtrs[3]=865.298
Cvtrs[4]=742.008
Cvtrs[5]=649.592
Cvtrs[6]=798.925
Cvtrs[7]=742.088
Cvtrs[8]=692.732
Cvtrs[9]=472.308

T=3630
Tve=3630
Cvtrs[0]=1038.36
Cvtrs[1]=890.41
Cvtrs[2]=779.511
Cvtrs[3]=865.298
Cvtrs[4]=742.008
Cvtrs[5]=649.592
Cvtrs[6]=798.925
Cvtrs[7]=742.088
Cvtrs[8]=692.732
Cvtrs[9]=472.308

T=3640
Tve=3640
Cvtrs[0]=1038.36
Cvtrs[1]=890.41
Cvtrs[2]=779.511
Cvtrs[3]=865.298
Cvtrs[4]=742.008
Cvtrs[5]=649.592
Cvtrs[6]=798.925
Cvtrs[7]=742.088
Cvtrs[8]=692.732
Cvtrs[9]=472.308

T=3650
Tve=3650
Cvtrs[0]=1038.36
Cvtrs[1]=890.41
Cvtrs[2]=779.511
Cvtrs[3]=865.298
Cvtrs[4]=742.008
Cvtrs[5]=649.592
Cvtrs[6]=798.925
Cvtrs[7]=742.088
Cvtrs[8]=692.732
Cvtrs[9]=472.308

T=3660
Tve=3660
Cvtrs[0]=1038.36
Cvtrs[1]=890.41
Cvtrs[2]=779.511
Cvtrs[3]=865.298
Cvtrs[4]=742.008
Cvtrs[5]=649.592
Cvtrs[6]=798.925
Cvtrs[7]=742.088
Cvtrs[8]=692.732
Cvtrs[9]=472.308

T=3670
Tve=3670
Cvtrs[0]=1038.36
Cvtrs[1]=890.41
Cvtrs[2]=779.511
Cvtrs[3]=865.298
Cvtrs[4]=742.008
Cvtrs[5]=649.592
Cvtrs[6]=798.925
Cvtrs[7]=742.088
Cvtrs[8]=692.732
Cvtrs[9]=472.308

T=3680
Tve=3680
Cvtrs[0]=1038.36
Cvtrs[1]=890.41
Cvtrs[2]=779.511
Cvtrs[3]=865.298
Cvtrs[4]=742.008
Cvtrs[5]=649.592
Cvtrs[6]=798.925
Cvtrs[7]=742.088
Cvtrs[8]=692.732
Cvtrs[9]=472.308

T=3690
Tve=3690
Cvtrs[0]=1038.36
Cvtrs[1]=890.41
Cvtrs[2]=779.511
Cvtrs[3]=865.298
Cvtrs[4]=742.008
Cvtrs[5]=649.592
Cvtrs[6]=798.925
Cvtrs[7]=742.088
Cvtrs[8]=692.732
Cvtrs[9]=472.308

T=3700
Tve=3700
Cvtrs[0]=1038.36
Cvtrs[1]=890.41
Cvtrs[2]=779.511
Cvtrs[3]=865.298
Cvtrs[4]=742.008
Cvtrs[5]=649.592
Cvtrs[6]=798.925
Cvtrs[7]=742.088
Cvtrs[8]=692.732
Cvtrs[9]=472.308

T=3710
Tve=3710
Cvtrs[0]=1038.36
Cvtrs[1]=890.41
Cvtrs[2]=779.511
Cvtrs[3]=865.298
Cvtrs[4]=742.008
Cvtrs[5]=649.592
Cvtrs[6]=798.925
Cvtrs[7]=742.088
Cvtrs[8]=692.732
Cvtrs[9]=472.308

T=3720
Tve=3720
Cvtrs[0]=1038.36
Cvtrs[1]=890.41
Cvtrs[2]=779.511
Cvtrs[3]=865.298
Cvtrs[4]=742.008
Cvtrs[5]=649.592
Cvtrs[6]=798.925
Cvtrs[7]=742.088
Cvtrs[8]=692.732
Cvtrs[9]=472.308

T=3730
Tve=3730
Cvtrs[0]=1038.36
Cvtrs[1]=890.41
Cvtrs[2]=779.511
Cvtrs[3]=865.298
Cvtrs[4]=742.008
Cvtrs[5]=649.592
Cvtrs[6]=798.925
Cvtrs[7]=742.088
Cvtrs[8]=692.732
Cvtrs[9]=472.308

T=3740
Tve=3740
Cvtrs[0]=1038.36
Cvtrs[1]=890.41
Cvtrs[2]=779.511
Cvtrs[3]=865.298
Cvtrs[4]=742.008
Cvtrs[5]=649.592
Cvtrs[6]=798.925
Cvtrs[7]=742.088
Cvtrs[8]=692.732
Cvtrs[9]=472.308

T=3750
Tve=3750
Cvtrs[0]=1038.36
Cvtrs[1]=890.41
Cvtrs[2]=779.511
Cvtrs[3]=865.298
Cvtrs[4]=742.008
Cvtrs[5]=649.592
Cvtrs[6]=798.925
Cvtrs[7]=742.088
Cvtrs[8]=692.732
Cvtrs[9]=472.308

T=3760
Tve=3760
Cvtrs[0]=1038.36
Cvtrs[1]=890.41
Cvtrs[2]=779.511
Cvtrs[3]=865.298
Cvtrs[4]=742.008
Cvtrs[5]=649.592
Cvtrs[6]=798.925
Cvtrs[7]=742.088
Cvtrs[8]=692.732
Cvtrs[9]=472.308

T=3770
Tve=3770
Cvtrs[0]=1038.36
Cvtrs[1]=890.41
Cvtrs[2]=779.511
Cvtrs[3]=865.298
Cvtrs[4]=742.008
Cvtrs[5]=649.592
Cvtrs[6]=798.925
Cvtrs[7]=742.088
Cvtrs[8]=692.732
Cvtrs[9]=472.308

T=3780
Tve=3780
Cvtrs[0]=1038.36
Cvtrs[1]=890.41
Cvtrs[2]=779.511
Cvtrs[3]=865.298
Cvtrs[4]=742.008
Cvtrs[5]=649.592
Cvtrs[6]=798.925
Cvtrs[7]=742.088
Cvtrs[8]=692.732
Cvtrs[9]=472.308

T=3790
Tve=3790
Cvtrs[0]=1038.36
Cvtrs[1]=890.41
Cvtrs[2]=779.511
Cvtrs[3]=865.298
Cvtrs[4]=742.008
Cvtrs[5]=649.592
Cvtrs[6]=798.925
Cvtrs[7]=742.088
Cvtrs[8]=692.732
Cvtrs[9]=472.308

T=3800
Tve=3800
Cvtrs[0]=1038.36
Cvtrs[1]=890.41
Cvtrs[2]=779.511
Cvtrs[3]=865.298
Cvtrs[4]=742.008
Cvtrs[5]=649.592
Cvtrs[6]=798.925
Cvtrs[7]=742.088
Cvtrs[8]=692.732
Cvtrs[9]=472.308

T=3810
Tve=3810
Cvtrs[0]=1038.36
Cvtrs[1]=890.41
Cvtrs[2]=779.511
Cvtrs[3]=865.298
Cvtrs[4]=742.008
Cvtrs[5]=649.592
Cvtrs[6]=798.925
Cvtrs[7]=742.088
Cvtrs[8]=692.732
Cvtrs[9]=472.308

T=3820
Tve=3820
Cvtrs[0]=1038.36
Cvtrs[1]=890.41
Cvtrs[2]=779.511
Cvtrs[3]=865.298
Cvtrs[4]=742.008
Cvtrs[5]=649.592
Cvtrs[6]=798.925
Cvtrs[7]=742.088
Cvtrs[8]=692.732
Cvtrs[9]=472.308

T=3830
Tve=3830
Cvtrs[0]=1038.36
Cvtrs[1]=890.41
Cvtrs[2]=779.511
Cvtrs[3]=865.298
Cvtrs[4]=742.008
Cvtrs[5]=649.592
Cvtrs[6]=798.925
Cvtrs[7]=742.088
Cvtrs[8]=692.732
Cvtrs[9]=472.308

T=3840
Tve=3840
Cvtrs[0]=1038.36
Cvtrs[1]=890.41
Cvtrs[2]=779.511
Cvtrs[3]=865.298
Cvtrs[4]=742.008
Cvtrs[5]=649.592
Cvtrs[6]=798.925
Cvtrs[7]=742.088
Cvtrs[8]=692.732
Cvtrs[9]=472.308

T=3850
Tve=3850
Cvtrs[0]=1038.36
Cvtrs[1]=890.41
Cvtrs[2]=779.511
Cvtrs[3]=865.298
Cvtrs[4]=742.008
Cvtrs[5]=649.592
Cvtrs[6]=798.925
Cvtrs[7]=742.088
Cvtrs[8]=692.732
Cvtrs[9]=472.308

T=3860
Tve=3860
Cvtrs[0]=1038.36
Cvtrs[1]=890.41
Cvtrs[2]=779.511
Cvtrs[3]=865.298
Cvtrs[4]=742.008
Cvtrs[5]=649.592
Cvtrs[6]=798.925
Cvtrs[7]=742.088
Cvtrs[8]=692.732
Cvtrs[9]=472.308

T=3870
Tve=3870
Cvtrs[0]=1038.36
Cvtrs[1]=890.41
Cvtrs[2]=779.511
Cvtrs[3]=865.298
Cvtrs[4]=742.008
Cvtrs[5]=649.592
Cvtrs[6]=798.925
Cvtrs[7]=742.088
Cvtrs[8]=692.732
Cvtrs[9]=472.308

T=3880
Tve=3880
Cvtrs[0]=1038.36
Cvtrs[1]=890.41
Cvtrs[2]=779.511
Cvtrs[3]=865.298
Cvtrs[4]=742.008
Cvtrs[5]=649.592
Cvtrs[6]=798.925
Cvtrs[7]=742.088
Cvtrs[8]=692.732
Cvtrs[9]=472.308

T=3890
Tve=3890
Cvtrs[0]=1038.36
Cvtrs[1]=890.41
Cvtrs[2]=779.511
Cvtrs[3]=865.298
Cvtrs[4]=742.008
Cvtrs[5]=649.592
Cvtrs[6]=798.925
Cvtrs[7]=742.088
Cvtrs[8]=692.732
Cvtrs[9]=472.308

T=3900
Tve=3900
Cvtrs[0]=1038.36
Cvtrs[1]=890.41
Cvtrs[2]=779.511
Cvtrs[3]=865.298
Cvtrs[4]=742.008
Cvtrs[5]=649.592
Cvtrs[6]=798.925
Cvtrs[7]=742.088
Cvtrs[8]=692.732
Cvtrs[9]=472.308

T=3910
Tve=3910
Cvtrs[0]=1038.36
Cvtrs[1]=890.41
Cvtrs[2]=779.511
Cvtrs[3]=865.298
Cvtrs[4]=742.008
Cvtrs[5]=649.592
Cvtrs[6]=798.925
Cvtrs[7]=742.088
Cvtrs[8]=692.732
Cvtrs[9]=472.308

T=3920
Tve=3920
Cvtrs[0]=1038.36
Cvtrs[1]=890.41
Cvtrs[2]=779.511
Cvtrs[3]=865.298
Cvtrs[4]=742.008
Cvtrs[5]=649.592
Cvtrs[6]=798.925
Cvtrs[7]=742.088
Cvtrs[8]=692.732
Cvtrs[9]=472.308

T=3930
Tve=3930
Cvtrs[0]=1038.36
Cvtrs[1]=890.41
Cvtrs[2]=779.511
Cvtrs[3]=865.298
Cvtrs[4]=742.008
Cvtrs[5]=649.592
Cvtrs[6]=798.925
Cvtrs[7]=742.088
Cvtrs[8]=692.732
Cvtrs[9]=472.308

T=3940
Tve=3940
Cvtrs[0]=1038.36
Cvtrs[1]=890.41
Cvtrs[2]=779.511
Cvtrs[3]=865.298
Cvtrs[4]=742.008
Cvtrs[5]=649.592
Cvtrs[6]=798.925
Cvtrs[7]=742.088
Cvtrs[8]=692.732
Cvtrs[9]=472.308

T=3950
Tve=3950
Cvtrs[0]=1038.36
Cvtrs[1]=890.41
Cvtrs[2]=779.511
Cvtrs[3]=865.298
Cvtrs[4]=742.008
Cvtrs[5]=649.592
Cvtrs[6]=798.925
Cvtrs[7]=742.088
Cvtrs[8]=692.732
Cvtrs[9]=472.308

T=3960
Tve=3960
Cvtrs[0]=1038.36
Cvtrs[1]=890.41
Cvtrs[2]=779.511
Cvtrs[3]=865.298
Cvtrs[4]=742.008
Cvtrs[5]=649.592
Cvtrs[6]=798.925
Cvtrs[7]=742.088
Cvtrs[8]=692.732
Cvtrs[9]=472.308

T=3970
Tve=3970
Cvtrs[0]=1038.36
Cvtrs[1]=890.41
Cvtrs[2]=779.511
Cvtrs[3]=865.298
Cvtrs[4]=742.008
Cvtrs[5]=649.592
Cvtrs[6]=798.925
Cvtrs[7]=742.088
Cvtrs[8]=692.732
Cvtrs[9]=472.308

T=3980
Tve=3980
Cvtrs[0]=1038.36
Cvtrs[1]=890.41
Cvtrs[2]=779.511
Cvtrs[3]=865.298
Cvtrs[4]=742.008
Cvtrs[5]=649.592
Cvtrs[6]=798.925
Cvtrs[7]=742.088
Cvtrs[8]=692.732
Cvtrs[9]=472.308

T=3990
[...]
Cvtrs[6]=798.925
Cvtrs[7]=742.088
Cvtrs[8]=692.732
Cvtrs[9]=472.308

T=13940
Tve=13940
Cvtrs[0]=1038.36
Cvtrs[1]=890.41
Cvtrs[2]=779.511
Cvtrs[3]=865.298
Cvtrs[4]=742.008
Cvtrs[5]=649.592
Cvtrs[6]=798.925
Cvtrs[7]=742.088
Cvtrs[8]=692.732
Cvtrs[9]=472.308

T=13950
Tve=13950
Cvtrs[0]=1038.36
Cvtrs[1]=890.41
Cvtrs[2]=779.511
Cvtrs[3]=865.298
Cvtrs[4]=742.008
Cvtrs[5]=649.592
Cvtrs[6]=798.925
Cvtrs[7]=742.088
Cvtrs[8]=692.732
Cvtrs[9]=472.308

T=13960
Tve=13960
Cvtrs[0]=1038.36
Cvtrs[1]=890.41
Cvtrs[2]=779.511
Cvtrs[3]=865.298
Cvtrs[4]=742.008
Cvtrs[5]=649.592
Cvtrs[6]=798.925
Cvtrs[7]=742.088
Cvtrs[8]=692.732
Cvtrs[9]=472.308

T=13970
Tve=13970
Cvtrs[0]=1038.36
Cvtrs[1]=890.41
Cvtrs[2]=779.511
Cvtrs[3]=865.298
Cvtrs[4]=742.008
Cvtrs[5]=649.592
Cvtrs[6]=798.925
Cvtrs[7]=742.088
Cvtrs[8]=692.732
Cvtrs[9]=472.308

T=13980
Tve=13980
Cvtrs[0]=1038.36
Cvtrs[1]=890.41
Cvtrs[2]=779.511
Cvtrs[3]=865.298
Cvtrs[4]=742.008
Cvtrs[5]=649.592
Cvtrs[6]=798.925
Cvtrs[7]=742.088
Cvtrs[8]=692.732
Cvtrs[9]=472.308

T=13990
Tve=13990
Cvtrs[0]=1038.36
Cvtrs[1]=890.41
Cvtrs[2]=779.511
Cvtrs[3]=865.298
Cvtrs[4]=742.008
Cvtrs[5]=649.592
Cvtrs[6]=798.925
Cvtrs[7]=742.088
Cvtrs[8]=692.732
Cvtrs[9]=472.308

T=14000
Tve=14000
Cvtrs[0]=1038.36
Cvtrs[1]=890.41
Cvtrs[2]=779.511
Cvtrs[3]=865.298
Cvtrs[4]=742.008
Cvtrs[5]=649.592
Cvtrs[6]=798.925
Cvtrs[7]=742.088
Cvtrs[8]=692.732
Cvtrs[9]=472.308

T=14010
Tve=14010
Cvtrs[0]=1038.36
Cvtrs[1]=890.41
Cvtrs[2]=779.511
Cvtrs[3]=865.298
Cvtrs[4]=742.008
Cvtrs[5]=649.592
Cvtrs[6]=798.925
Cvtrs[7]=742.088
Cvtrs[8]=692.732
Cvtrs[9]=472.308

T=14020
Tve=14020
Cvtrs[0]=1038.36
Cvtrs[1]=890.41
Cvtrs[2]=779.511
Cvtrs[3]=865.298
Cvtrs[4]=742.008
Cvtrs[5]=649.592
Cvtrs[6]=798.925
Cvtrs[7]=742.088
Cvtrs[8]=692.732
Cvtrs[9]=472.308

T=14030
Tve=14030
Cvtrs[0]=1038.36
Cvtrs[1]=890.41
Cvtrs[2]=779.511
Cvtrs[3]=865.298
Cvtrs[4]=742.008
Cvtrs[5]=649.592
Cvtrs[6]=798.925
Cvtrs[7]=742.088
Cvtrs[8]=692.732
Cvtrs[9]=472.308

T=14040
Tve=14040
Cvtrs[0]=1038.36
Cvtrs[1]=890.41
Cvtrs[2]=779.511
Cvtrs[3]=865.298
Cvtrs[4]=742.008
Cvtrs[5]=649.592
Cvtrs[6]=798.925
Cvtrs[7]=742.088
Cvtrs[8]=692.732
Cvtrs[9]=472.308

T=14050
Tve=14050
Cvtrs[0]=1038.36
Cvtrs[1]=890.41
Cvtrs[2]=779.511
Cvtrs[3]=865.298
Cvtrs[4]=742.008
Cvtrs[5]=649.592
Cvtrs[6]=798.925
Cvtrs[7]=742.088
Cvtrs[8]=692.732
Cvtrs[9]=472.308

T=14060
Tve=14060
Cvtrs[0]=1038.36
Cvtrs[1]=890.41
Cvtrs[2]=779.511
Cvtrs[3]=865.298
Cvtrs[4]=742.008
Cvtrs[5]=649.592
Cvtrs[6]=798.925
Cvtrs[7]=742.088
Cvtrs[8]=692.732
Cvtrs[9]=472.308

T=14070
Tve=14070
Cvtrs[0]=1038.36
Cvtrs[1]=890.41
Cvtrs[2]=779.511
Cvtrs[3]=865.298
Cvtrs[4]=742.008
Cvtrs[5]=649.592
Cvtrs[6]=798.925
Cvtrs[7]=742.088
Cvtrs[8]=692.732
Cvtrs[9]=472.308

T=14080
Tve=14080
Cvtrs[0]=1038.36
Cvtrs[1]=890.41
Cvtrs[2]=779.511
Cvtrs[3]=865.298
Cvtrs[4]=742.008
Cvtrs[5]=649.592
Cvtrs[6]=798.925
Cvtrs[7]=742.088
Cvtrs[8]=692.732
Cvtrs[9]=472.308

T=14090
Tve=14090
Cvtrs[0]=1038.36
Cvtrs[1]=890.41
Cvtrs[2]=779.511
Cvtrs[3]=865.298
Cvtrs[4]=742.008
Cvtrs[5]=649.592
Cvtrs[6]=798.925
Cvtrs[7]=742.088
Cvtrs[8]=692.732
Cvtrs[9]=472.308

T=14100
Tve=14100
Cvtrs[0]=1038.36
Cvtrs[1]=890.41
Cvtrs[2]=779.511
Cvtrs[3]=865.298
Cvtrs[4]=742.008
Cvtrs[5]=649.592
Cvtrs[6]=798.925
Cvtrs[7]=742.088
Cvtrs[8]=692.732
Cvtrs[9]=472.308

T=14110
Tve=14110
Cvtrs[0]=1038.36
Cvtrs[1]=890.41
Cvtrs[2]=779.511
Cvtrs[3]=865.298
Cvtrs[4]=742.008
Cvtrs[5]=649.592
Cvtrs[6]=798.925
Cvtrs[7]=742.088
Cvtrs[8]=692.732
Cvtrs[9]=472.308

T=14120
Tve=14120
Cvtrs[0]=1038.36
Cvtrs[1]=890.41
Cvtrs[2]=779.511
Cvtrs[3]=865.298
Cvtrs[4]=742.008
Cvtrs[5]=649.592
Cvtrs[6]=798.925
Cvtrs[7]=742.088
Cvtrs[8]=692.732
Cvtrs[9]=472.308

T=14130
Tve=14130
Cvtrs[0]=1038.36
Cvtrs[1]=890.41
Cvtrs[2]=779.511
Cvtrs[3]=865.298
Cvtrs[4]=742.008
Cvtrs[5]=649.592
Cvtrs[6]=798.925
Cvtrs[7]=742.088
Cvtrs[8]=692.732
Cvtrs[9]=472.308

T=14140
Tve=14140
Cvtrs[0]=1038.36
Cvtrs[1]=890.41
Cvtrs[2]=779.511
Cvtrs[3]=865.298
Cvtrs[4]=742.008
Cvtrs[5]=649.592
Cvtrs[6]=798.925
Cvtrs[7]=742.088
Cvtrs[8]=692.732
Cvtrs[9]=472.308

T=14150
Tve=14150
Cvtrs[0]=1038.36
Cvtrs[1]=890.41
Cvtrs[2]=779.511
Cvtrs[3]=865.298
Cvtrs[4]=742.008
Cvtrs[5]=649.592
Cvtrs[6]=798.925
Cvtrs[7]=742.088
Cvtrs[8]=692.732
Cvtrs[9]=472.308

T=14160
Tve=14160
Cvtrs[0]=1038.36
Cvtrs[1]=890.41
Cvtrs[2]=779.511
Cvtrs[3]=865.298
Cvtrs[4]=742.008
Cvtrs[5]=649.592
Cvtrs[6]=798.925
Cvtrs[7]=742.088
Cvtrs[8]=692.732
Cvtrs[9]=472.308

T=14170
Tve=14170
Cvtrs[0]=1038.36
Cvtrs[1]=890.41
Cvtrs[2]=779.511
Cvtrs[3]=865.298
Cvtrs[4]=742.008
Cvtrs[5]=649.592
Cvtrs[6]=798.925
Cvtrs[7]=742.088
Cvtrs[8]=692.732
Cvtrs[9]=472.308

T=14180
Tve=14180
Cvtrs[0]=1038.36
Cvtrs[1]=890.41
Cvtrs[2]=779.511
Cvtrs[3]=865.298
Cvtrs[4]=742.008
Cvtrs[5]=649.592
Cvtrs[6]=798.925
Cvtrs[7]=742.088
Cvtrs[8]=692.732
Cvtrs[9]=472.308

T=14190
Tve=14190
Cvtrs[0]=1038.36
Cvtrs[1]=890.41
Cvtrs[2]=779.511
Cvtrs[3]=865.298
Cvtrs[4]=742.008
Cvtrs[5]=649.592
Cvtrs[6]=798.925
Cvtrs[7]=742.088
Cvtrs[8]=692.732
Cvtrs[9]=472.308

T=14200
Tve=14200
Cvtrs[0]=1038.36
Cvtrs[1]=890.41
Cvtrs[2]=779.511
Cvtrs[3]=865.298
Cvtrs[4]=742.008
Cvtrs[5]=649.592
Cvtrs[6]=798.925
Cvtrs[7]=742.088
Cvtrs[8]=692.732
Cvtrs[9]=472.308

T=14210
Tve=14210
Cvtrs[0]=1038.36
Cvtrs[1]=890.41
Cvtrs[2]=779.511
Cvtrs[3]=865.298
Cvtrs[4]=742.008
Cvtrs[5]=649.592
Cvtrs[6]=798.925
Cvtrs[7]=742.088
Cvtrs[8]=692.732
Cvtrs[9]=472.308

T=14220
Tve=14220
Cvtrs[0]=1038.36
Cvtrs[1]=890.41
Cvtrs[2]=779.511
Cvtrs[3]=865.298
Cvtrs[4]=742.008
Cvtrs[5]=649.592
Cvtrs[6]=798.925
Cvtrs[7]=742.088
Cvtrs[8]=692.732
Cvtrs[9]=472.308

T=14230
Tve=14230
Cvtrs[0]=1038.36
Cvtrs[1]=890.41
Cvtrs[2]=779.511
Cvtrs[3]=865.298
Cvtrs[4]=742.008
Cvtrs[5]=649.592
Cvtrs[6]=798.925
Cvtrs[7]=742.088
Cvtrs[8]=692.732
Cvtrs[9]=472.308

T=14240
Tve=14240
Cvtrs[0]=1038.36
Cvtrs[1]=890.41
Cvtrs[2]=779.511
Cvtrs[3]=865.298
Cvtrs[4]=742.008
Cvtrs[5]=649.592
Cvtrs[6]=798.925
Cvtrs[7]=742.088
Cvtrs[8]=692.732
Cvtrs[9]=472.308

T=14250
Tve=14250
Cvtrs[0]=1038.36
Cvtrs[1]=890.41
Cvtrs[2]=779.511
Cvtrs[3]=865.298
Cvtrs[4]=742.008
Cvtrs[5]=649.592
Cvtrs[6]=798.925
Cvtrs[7]=742.088
Cvtrs[8]=692.732
Cvtrs[9]=472.308

T=14260
Tve=14260
Cvtrs[0]=1038.36
Cvtrs[1]=890.41
Cvtrs[2]=779.511
Cvtrs[3]=865.298
Cvtrs[4]=742.008
Cvtrs[5]=649.592
Cvtrs[6]=798.925
Cvtrs[7]=742.088
Cvtrs[8]=692.732
Cvtrs[9]=472.308

T=14270
Tve=14270
Cvtrs[0]=1038.36
Cvtrs[1]=890.41
Cvtrs[2]=779.511
Cvtrs[3]=865.298
Cvtrs[4]=742.008
Cvtrs[5]=649.592
Cvtrs[6]=798.925
Cvtrs[7]=742.088
Cvtrs[8]=692.732
Cvtrs[9]=472.308

T=14280
Tve=14280
Cvtrs[0]=1038.36
Cvtrs[1]=890.41
Cvtrs[2]=779.511
Cvtrs[3]=865.298
Cvtrs[4]=742.008
Cvtrs[5]=649.592
Cvtrs[6]=798.925
Cvtrs[7]=742.088
Cvtrs[8]=692.732
Cvtrs[9]=472.308

T=14290
Tve=14290
Cvtrs[0]=1038.36
Cvtrs[1]=890.41
Cvtrs[2]=779.511
Cvtrs[3]=865.298
Cvtrs[4]=742.008
Cvtrs[5]=649.592
Cvtrs[6]=798.925
Cvtrs[7]=742.088
Cvtrs[8]=692.732
Cvtrs[9]=472.308

T=14300
Tve=14300
Cvtrs[0]=1038.36
Cvtrs[1]=890.41
Cvtrs[2]=779.511
Cvtrs[3]=865.298
Cvtrs[4]=742.008
Cvtrs[5]=649.592
Cvtrs[6]=798.925
Cvtrs[7]=742.088
Cvtrs[8]=692.732
Cvtrs[9]=472.308

T=14310
Tve=14310
Cvtrs[0]=1038.36
Cvtrs[1]=890.41
Cvtrs[2]=779.511
Cvtrs[3]=865.298
Cvtrs[4]=742.008
Cvtrs[5]=649.592
Cvtrs[6]=798.925
Cvtrs[7]=742.088
Cvtrs[8]=692.732
Cvtrs[9]=472.308

T=14320
Tve=14320
Cvtrs[0]=1038.36
Cvtrs[1]=890.41
Cvtrs[2]=779.511
Cvtrs[3]=865.298
Cvtrs[4]=742.008
Cvtrs[5]=649.592
Cvtrs[6]=798.925
Cvtrs[7]=742.088
Cvtrs[8]=692.732
Cvtrs[9]=472.308

T=14330
Tve=14330
Cvtrs[0]=1038.36
Cvtrs[1]=890.41
Cvtrs[2]=779.511
Cvtrs[3]=865.298
Cvtrs[4]=742.008
Cvtrs[5]=649.592
Cvtrs[6]=798.925
Cvtrs[7]=742.088
Cvtrs[8]=692.732
Cvtrs[9]=472.308

T=14340
Tve=14340
Cvtrs[0]=1038.36
Cvtrs[1]=890.41
Cvtrs[2]=779.511
Cvtrs[3]=865.298
Cvtrs[4]=742.008
Cvtrs[5]=649.592
Cvtrs[6]=798.925
Cvtrs[7]=742.088
Cvtrs[8]=692.732
Cvtrs[9]=472.308

T=14350
Tve=14350
Cvtrs[0]=1038.36
Cvtrs[1]=890.41
Cvtrs[2]=779.511
Cvtrs[3]=865.298
Cvtrs[4]=742.008
Cvtrs[5]=649.592
Cvtrs[6]=798.925
Cvtrs[7]=742.088
Cvtrs[8]=692.732
Cvtrs[9]=472.308

T=14360
Tve=14360
Cvtrs[0]=1038.36
Cvtrs[1]=890.41
Cvtrs[2]=779.511
Cvtrs[3]=865.298
Cvtrs[4]=742.008
Cvtrs[5]=649.592
Cvtrs[6]=798.925
Cvtrs[7]=742.088
Cvtrs[8]=692.732
Cvtrs[9]=472.308

T=14370
Tve=14370
Cvtrs[0]=1038.36
Cvtrs[1]=890.41
Cvtrs[2]=779.511
Cvtrs[3]=865.298
Cvtrs[4]=742.008
Cvtrs[5]=649.592
Cvtrs[6]=798.925
Cvtrs[7]=742.088
Cvtrs[8]=692.732
Cvtrs[9]=472.308

T=14380
Tve=14380
Cvtrs[0]=1038.36
Cvtrs[1]=890.41
Cvtrs[2]=779.511
Cvtrs[3]=865.298
Cvtrs[4]=742.008
Cvtrs[5]=649.592
Cvtrs[6]=798.925
Cvtrs[7]=742.088
Cvtrs[8]=692.732
Cvtrs[9]=472.308

T=14390
Tve=14390
Cvtrs[0]=1038.36
Cvtrs[1]=890.41
Cvtrs[2]=779.511
Cvtrs[3]=865.298
Cvtrs[4]=742.008
Cvtrs[5]=649.592
Cvtrs[6]=798.925
Cvtrs[7]=742.088
Cvtrs[8]=692.732
Cvtrs[9]=472.308

T=14400
Tve=14400
Cvtrs[0]=1038.36
Cvtrs[1]=890.41
Cvtrs[2]=779.511
Cvtrs[3]=865.298
Cvtrs[4]=742.008
Cvtrs[5]=649.592
Cvtrs[6]=798.925
Cvtrs[7]=742.088
Cvtrs[8]=692.732
Cvtrs[9]=472.308

T=14410
Tve=14410
Cvtrs[0]=1038.36
Cvtrs[1]=890.41
Cvtrs[2]=779.511
Cvtrs[3]=865.298
Cvtrs[4]=742.008
Cvtrs[5]=649.592
Cvtrs[6]=798.925
Cvtrs[7]=742.088
Cvtrs[8]=692.732
Cvtrs[9]=472.308

T=14420
Tve=14420
Cvtrs[0]=1038.36
Cvtrs[1]=890.41
Cvtrs[2]=779.511
Cvtrs[3]=865.298
Cvtrs[4]=742.008
Cvtrs[5]=649.592
Cvtrs[6]=798.925
Cvtrs[7]=742.088
Cvtrs[8]=692.732
Cvtrs[9]=472.308

T=14430
Tve=14430
Cvtrs[0]=1038.36
Cvtrs[1]=890.41
Cvtrs[2]=779.511
Cvtrs[3]=865.298
Cvtrs[4]=742.008
Cvtrs[5]=649.592
Cvtrs[6]=798.925
Cvtrs[7]=742.088
Cvtrs[8]=692.732
Cvtrs[9]=472.308

T=14440
Tve=14440
Cvtrs[0]=1038.36
Cvtrs[1]=890.41
Cvtrs[2]=779.511
Cvtrs[3]=865.298
Cvtrs[4]=742.008
Cvtrs[5]=649.592
Cvtrs[6]=798.925
Cvtrs[7]=742.088
Cvtrs[8]=692.732
Cvtrs[9]=472.308

T=14450
Tve=14450
Cvtrs[0]=1038.36
Cvtrs[1]=890.41
Cvtrs[2]=779.511
Cvtrs[3]=865.298
Cvtrs[4]=742.008
Cvtrs[5]=649.592
Cvtrs[6]=798.925
Cvtrs[7]=742.088
Cvtrs[8]=692.732
Cvtrs[9]=472.308

T=14460
Tve=14460
Cvtrs[0]=1038.36
Cvtrs[1]=890.41
Cvtrs[2]=779.511
Cvtrs[3]=865.298
Cvtrs[4]=742.008
Cvtrs[5]=649.592
Cvtrs[6]=798.925
Cvtrs[7]=742.088
Cvtrs[8]=692.732
Cvtrs[9]=472.308

T=14470
Tve=14470
Cvtrs[0]=1038.36
Cvtrs[1]=890.41
Cvtrs[2]=779.511
Cvtrs[3]=865.298
Cvtrs[4]=742.008
Cvtrs[5]=649.592
Cvtrs[6]=798.925
Cvtrs[7]=742.088
Cvtrs[8]=692.732
Cvtrs[9]=472.308

T=14480
Tve=14480
Cvtrs[0]=1038.36
Cvtrs[1]=890.41
Cvtrs[2]=779.511
Cvtrs[3]=865.298
Cvtrs[4]=742.008
Cvtrs[5]=649.592
Cvtrs[6]=798.925
Cvtrs[7]=742.088
Cvtrs[8]=692.732
Cvtrs[9]=472.308

T=14490
Tve=14490
Cvtrs[0]=1038.36
Cvtrs[1]=890.41
Cvtrs[2]=779.511
Cvtrs[3]=865.298
Cvtrs[4]=742.008
Cvtrs[5]=649.592
Cvtrs[6]=798.925
Cvtrs[7]=742.088
Cvtrs[8]=692.732
Cvtrs[9]=472.308

T=14500
Tve=14500
Cvtrs[0]=1038.36
Cvtrs[1]=890.41
Cvtrs[2]=779.511
Cvtrs[3]=865.298
Cvtrs[4]=742.008
Cvtrs[5]=649.592
Cvtrs[6]=798.925
Cvtrs[7]=742.088
Cvtrs[8]=692.732
Cvtrs[9]=472.308

T=14510
Tve=14510
Cvtrs[0]=1038.36
Cvtrs[1]=890.41
Cvtrs[2]=779.511
Cvtrs[3]=865.298
Cvtrs[4]=742.008
Cvtrs[5]=649.592
Cvtrs[6]=798.925
Cvtrs[7]=742.088
Cvtrs[8]=692.732
Cvtrs[9]=472.308

T=14520
Tve=14520
Cvtrs[0]=1038.36
Cvtrs[1]=890.41
Cvtrs[2]=779.511
Cvtrs[3]=865.298
Cvtrs[4]=742.008
Cvtrs[5]=649.592
Cvtrs[6]=798.925
Cvtrs[7]=742.088
Cvtrs[8]=692.732
Cvtrs[9]=472.308

T=14530
Tve=14530
Cvtrs[0]=1038.36
Cvtrs[1]=890.41
Cvtrs[2]=779.511
Cvtrs[3]=865.298
Cvtrs[4]=742.008
Cvtrs[5]=649.592
Cvtrs[6]=798.925
Cvtrs[7]=742.088
Cvtrs[8]=692.732
Cvtrs[9]=472.308

T=14540
Tve=14540
Cvtrs[0]=1038.36
Cvtrs[1]=890.41
Cvtrs[2]=779.511
Cvtrs[3]=865.298
Cvtrs[4]=742.008
Cvtrs[5]=649.592
Cvtrs[6]=798.925
Cvtrs[7]=742.088
Cvtrs[8]=692.732
Cvtrs[9]=472.308

T=14550
Tve=14550
Cvtrs[0]=1038.36
Cvtrs[1]=890.41
Cvtrs[2]=779.511
Cvtrs[3]=865.298
Cvtrs[4]=742.008
Cvtrs[5]=649.592
Cvtrs[6]=798.925
Cvtrs[7]=742.088
Cvtrs[8]=692.732
Cvtrs[9]=472.308

T=14560
Tve=14560
Cvtrs[0]=1038.36
Cvtrs[1]=890.41
Cvtrs[2]=779.511
Cvtrs[3]=865.298
Cvtrs[4]=742.008
Cvtrs[5]=649.592
Cvtrs[6]=798.925
Cvtrs[7]=742.088
Cvtrs[8]=692.732
Cvtrs[9]=472.308

T=14570
Tve=14570
Cvtrs[0]=1038.36
Cvtrs[1]=890.41
Cvtrs[2]=779.511
Cvtrs[3]=865.298
Cvtrs[4]=742.008
Cvtrs[5]=649.592
Cvtrs[6]=798.925
Cvtrs[7]=742.088
Cvtrs[8]=692.732
Cvtrs[9]=472.308

T=14580
Tve=14580
Cvtrs[0]=1038.36
Cvtrs[1]=890.41
Cvtrs[2]=779.511
Cvtrs[3]=865.298
Cvtrs[4]=742.008
Cvtrs[5]=649.592
Cvtrs[6]=798.925
Cvtrs[7]=742.088
Cvtrs[8]=692.732
Cvtrs[9]=472.308

T=14590
Tve=14590
Cvtrs[0]=1038.36
Cvtrs[1]=890.41
Cvtrs[2]=779.511
Cvtrs[3]=865.298
Cvtrs[4]=742.008
Cvtrs[5]=649.592
Cvtrs[6]=798.925
Cvtrs[7]=742.088
Cvtrs[8]=692.732
Cvtrs[9]=472.308

T=14600
Tve=14600
Cvtrs[0]=1038.36
Cvtrs[1]=890.41
Cvtrs[2]=779.511
Cvtrs[3]=865.298
Cvtrs[4]=742.008
Cvtrs[5]=649.592
Cvtrs[6]=798.925
Cvtrs[7]=742.088
Cvtrs[8]=692.732
Cvtrs[9]=472.308

T=14610
Tve=14610
Cvtrs[0]=1038.36
Cvtrs[1]=890.41
Cvtrs[2]=779.511
Cvtrs[3]=865.298
Cvtrs[4]=742.008
Cvtrs[5]=649.592
Cvtrs[6]=798.925
Cvtrs[7]=742.088
Cvtrs[8]=692.732
Cvtrs[9]=472.308

T=14620
Tve=14620
Cvtrs[0]=1038.36
Cvtrs[1]=890.41
Cvtrs[2]=779.511
Cvtrs[3]=865.298
Cvtrs[4]=742.008
Cvtrs[5]=649.592
Cvtrs[6]=798.925
Cvtrs[7]=742.088
Cvtrs[8]=692.732
Cvtrs[9]=472.308

T=14630
Tve=14630
Cvtrs[0]=1038.36
Cvtrs[1]=890.41
Cvtrs[2]=779.511
Cvtrs[3]=865.298
Cvtrs[4]=742.008
Cvtrs[5]=649.592
Cvtrs[6]=798.925
Cvtrs[7]=742.088
Cvtrs[8]=692.732
Cvtrs[9]=472.308

T=14640
Tve=14640
Cvtrs[0]=1038.36
Cvtrs[1]=890.41
Cvtrs[2]=779.511
Cvtrs[3]=865.298
Cvtrs[4]=742.008
Cvtrs[5]=649.592
Cvtrs[6]=798.925
Cvtrs[7]=742.088
Cvtrs[8]=692.732
Cvtrs[9]=472.308

T=14650
Tve=14650
Cvtrs[0]=1038.36
Cvtrs[1]=890.41
Cvtrs[2]=779.511
Cvtrs[3]=865.298
Cvtrs[4]=742.008
Cvtrs[5]=649.592
Cvtrs[6]=798.925
Cvtrs[7]=742.088
Cvtrs[8]=692.732
Cvtrs[9]=472.308

T=14660
Tve=14660
Cvtrs[0]=1038.36
Cvtrs[1]=890.41
Cvtrs[2]=779.511
Cvtrs[3]=865.298
Cvtrs[4]=742.008
Cvtrs[5]=649.592
Cvtrs[6]=798.925
Cvtrs[7]=742.088
Cvtrs[8]=692.732
Cvtrs[9]=472.308

T=14670
Tve=14670
Cvtrs[0]=1038.36
Cvtrs[1]=890.41
Cvtrs[2]=779.511
Cvtrs[3]=865.298
Cvtrs[4]=742.008
Cvtrs[5]=649.592
Cvtrs[6]=798.925
Cvtrs[7]=742.088
Cvtrs[8]=692.732
Cvtrs[9]=472.308

T=14680
Tve=14680
Cvtrs[0]=1038.36
Cvtrs[1]=890.41
Cvtrs[2]=779.511
Cvtrs[3]=865.298
Cvtrs[4]=742.008
Cvtrs[5]=649.592
Cvtrs[6]=798.925
Cvtrs[7]=742.088
Cvtrs[8]=692.732
Cvtrs[9]=472.308

T=14690
Tve=14690
Cvtrs[0]=1038.36
Cvtrs[1]=890.41
Cvtrs[2]=779.511
Cvtrs[3]=865.298
Cvtrs[4]=742.008
Cvtrs[5]=649.592
Cvtrs[6]=798.925
Cvtrs[7]=742.088
Cvtrs[8]=692.732
Cvtrs[9]=472.308

T=14700
Tve=14700
Cvtrs[0]=1038.36
Cvtrs[1]=890.41
Cvtrs[2]=779.511
Cvtrs[3]=865.298
Cvtrs[4]=742.008
Cvtrs[5]=649.592
Cvtrs[6]=798.925
Cvtrs[7]=742.088
Cvtrs[8]=692.732
Cvtrs[9]=472.308

T=14710
Tve=14710
Cvtrs[0]=1038.36
Cvtrs[1]=890.41
Cvtrs[2]=779.511
Cvtrs[3]=865.298
Cvtrs[4]=742.008
Cvtrs[5]=649.592
Cvtrs[6]=798.925
Cvtrs[7]=742.088
Cvtrs[8]=692.732
Cvtrs[9]=472.308

T=14720
Tve=14720
Cvtrs[0]=1038.36
Cvtrs[1]=890.41
Cvtrs[2]=779.511
Cvtrs[3]=865.298
Cvtrs[4]=742.008
Cvtrs[5]=649.592
Cvtrs[6]=798.925
Cvtrs[7]=742.088
Cvtrs[8]=692.732
Cvtrs[9]=472.308

T=14730
Tve=14730
Cvtrs[0]=1038.36
Cvtrs[1]=890.41
Cvtrs[2]=779.511
Cvtrs[3]=865.298
Cvtrs[4]=742.008
Cvtrs[5]=649.592
Cvtrs[6]=798.925
Cvtrs[7]=742.088
Cvtrs[8]=692.732
Cvtrs[9]=472.308

T=14740
Tve=14740
Cvtrs[0]=1038.36
Cvtrs[1]=890.41
Cvtrs[2]=779.511
Cvtrs[3]=865.298
Cvtrs[4]=742.008
Cvtrs[5]=649.592
Cvtrs[6]=798.925
Cvtrs[7]=742.088
Cvtrs[8]=692.732
Cvtrs[9]=472.308

T=14750
Tve=14750
Cvtrs[0]=1038.36
Cvtrs[1]=890.41
Cvtrs[2]=779.511
Cvtrs[3]=865.298
Cvtrs[4]=742.008
Cvtrs[5]=649.592
Cvtrs[6]=798.925
Cvtrs[7]=742.088
Cvtrs[8]=692.732
Cvtrs[9]=472.308

T=14760
Tve=14760
Cvtrs[0]=1038.36
Cvtrs[1]=890.41
Cvtrs[2]=779.511
Cvtrs[3]=865.298
Cvtrs[4]=742.008
Cvtrs[5]=649.592
Cvtrs[6]=798.925
Cvtrs[7]=742.088
Cvtrs[8]=692.732
Cvtrs[9]=472.308

T=14770
Tve=14770
Cvtrs[0]=1038.36
Cvtrs[1]=890.41
Cvtrs[2]=779.511
Cvtrs[3]=865.298
Cvtrs[4]=742.008
Cvtrs[5]=649.592
Cvtrs[6]=798.925
Cvtrs[7]=742.088
Cvtrs[8]=692.732
Cvtrs[9]=472.308

T=14780
Tve=14780
Cvtrs[0]=1038.36
Cvtrs[1]=890.41
Cvtrs[2]=779.511
Cvtrs[3]=865.298
Cvtrs[4]=742.008
Cvtrs[5]=649.592
Cvtrs[6]=798.925
Cvtrs[7]=742.088
Cvtrs[8]=692.732
Cvtrs[9]=472.308

T=14790
Tve=14790
Cvtrs[0]=1038.36
Cvtrs[1]=890.41
Cvtrs[2]=779.511
Cvtrs[3]=865.298
Cvtrs[4]=742.008
Cvtrs[5]=649.592
Cvtrs[6]=798.925
Cvtrs[7]=742.088
Cvtrs[8]=692.732
Cvtrs[9]=472.308

T=14800
Tve=14800
Cvtrs[0]=1038.36
Cvtrs[1]=890.41
Cvtrs[2]=779.511
Cvtrs[3]=865.298
Cvtrs[4]=742.008
Cvtrs[5]=649.592
Cvtrs[6]=798.925
Cvtrs[7]=742.088
Cvtrs[8]=692.732
Cvtrs[9]=472.308

T=14810
Tve=14810
Cvtrs[0]=1038.36
Cvtrs[1]=890.41
Cvtrs[2]=779.511
Cvtrs[3]=865.298
Cvtrs[4]=742.008
Cvtrs[5]=649.592
Cvtrs[6]=798.925
Cvtrs[7]=742.088
Cvtrs[8]=692.732
Cvtrs[9]=472.308

T=14820
Tve=14820
Cvtrs[0]=1038.36
Cvtrs[1]=890.41
Cvtrs[2]=779.511
Cvtrs[3]=865.298
Cvtrs[4]=742.008
Cvtrs[5]=649.592
Cvtrs[6]=798.925
Cvtrs[7]=742.088
Cvtrs[8]=692.732
Cvtrs[9]=472.308

T=14830
Tve=14830
Cvtrs[0]=1038.36
Cvtrs[1]=890.41
Cvtrs[2]=779.511
Cvtrs[3]=865.298
Cvtrs[4]=742.008
Cvtrs[5]=649.592
Cvtrs[6]=798.925
Cvtrs[7]=742.088
Cvtrs[8]=692.732
Cvtrs[9]=472.308

T=14840
Tve=14840
Cvtrs[0]=1038.36
Cvtrs[1]=890.41
Cvtrs[2]=779.511
Cvtrs[3]=865.298
Cvtrs[4]=742.008
Cvtrs[5]=649.592
Cvtrs[6]=798.925
Cvtrs[7]=742.088
Cvtrs[8]=692.732
Cvtrs[9]=472.308

T=14850
Tve=14850
Cvtrs[0]=1038.36
Cvtrs[1]=890.41
Cvtrs[2]=779.511
Cvtrs[3]=865.298
Cvtrs[4]=742.008
Cvtrs[5]=649.592
Cvtrs[6]=798.925
Cvtrs[7]=742.088
Cvtrs[8]=692.732
Cvtrs[9]=472.308

T=14860
Tve=14860
Cvtrs[0]=1038.36
Cvtrs[1]=890.41
Cvtrs[2]=779.511
Cvtrs[3]=865.298
Cvtrs[4]=742.008
Cvtrs[5]=649.592
Cvtrs[6]=798.925
Cvtrs[7]=742.088
Cvtrs[8]=692.732
Cvtrs[9]=472.308

T=14870
Tve=14870
Cvtrs[0]=1038.36
Cvtrs[1]=890.41
Cvtrs[2]=779.511
Cvtrs[3]=865.298
Cvtrs[4]=742.008
Cvtrs[5]=649.592
Cvtrs[6]=798.925
Cvtrs[7]=742.088
Cvtrs[8]=692.732
Cvtrs[9]=472.308

T=14880
Tve=14880
Cvtrs[0]=1038.36
Cvtrs[1]=890.41
Cvtrs[2]=779.511
Cvtrs[3]=865.298
Cvtrs[4]=742.008
Cvtrs[5]=649.592
Cvtrs[6]=798.925
Cvtrs[7]=742.088
Cvtrs[8]=692.732
Cvtrs[9]=472.308

T=14890
Tve=14890
Cvtrs[0]=1038.36
Cvtrs[1]=890.41
Cvtrs[2]=779.511
Cvtrs[3]=865.298
Cvtrs[4]=742.008
Cvtrs[5]=649.592
Cvtrs[6]=798.925
Cvtrs[7]=742.088
Cvtrs[8]=692.732
Cvtrs[9]=472.308

T=14900
Tve=14900
Cvtrs[0]=1038.36
Cvtrs[1]=890.41
Cvtrs[2]=779.511
Cvtrs[3]=865.298
Cvtrs[4]=742.008
Cvtrs[5]=649.592
Cvtrs[6]=798.925
Cvtrs[7]=742.088
Cvtrs[8]=692.732
Cvtrs[9]=472.308

T=14910
Tve=14910
Cvtrs[0]=1038.36
Cvtrs[1]=890.41
Cvtrs[2]=779.511
Cvtrs[3]=865.298
Cvtrs[4]=742.008
Cvtrs[5]=649.592
Cvtrs[6]=798.925
Cvtrs[7]=742.088
Cvtrs[8]=692.732
Cvtrs[9]=472.308

T=14920
Tve=14920
Cvtrs[0]=1038.36
Cvtrs[1]=890.41
Cvtrs[2]=779.511
Cvtrs[3]=865.298
Cvtrs[4]=742.008
Cvtrs[5]=649.592
Cvtrs[6]=798.925
Cvtrs[7]=742.088
Cvtrs[8]=692.732
Cvtrs[9]=472.308

T=14930
Tve=14930
Cvtrs[0]=1038.36
Cvtrs[1]=890.41
Cvtrs[2]=779.511
Cvtrs[3]=865.298
Cvtrs[4]=742.008
Cvtrs[5]=649.592
Cvtrs[6]=798.925
Cvtrs[7]=742.088
Cvtrs[8]=692.732
Cvtrs[9]=472.308

T=14940
Tve=14940
Cvtrs[0]=1038.36
Cvtrs[1]=890.41
Cvtrs[2]=779.511
Cvtrs[3]=865.298
Cvtrs[4]=742.008
Cvtrs[5]=649.592
Cvtrs[6]=798.925
Cvtrs[7]=742.088
Cvtrs[8]=692.732
Cvtrs[9]=472.308

T=14950
Tve=14950
Cvtrs[0]=1038.36
Cvtrs[1]=890.41
Cvtrs[2]=779.511
Cvtrs[3]=865.298
Cvtrs[4]=742.008
Cvtrs[5]=649.592
Cvtrs[6]=798.925
Cvtrs[7]=742.088
Cvtrs[8]=692.732
Cvtrs[9]=472.308

T=14960
Tve=14960
Cvtrs[0]=1038.36
Cvtrs[1]=890.41
Cvtrs[2]=779.511
Cvtrs[3]=865.298
Cvtrs[4]=742.008
Cvtrs[5]=649.592
Cvtrs[6]=798.925
Cvtrs[7]=742.088
Cvtrs[8]=692.732
Cvtrs[9]=472.308

T=14970
Tve=14970
Cvtrs[0]=1038.36
Cvtrs[1]=890.41
Cvtrs[2]=779.511
Cvtrs[3]=865.298
Cvtrs[4]=742.008
Cvtrs[5]=649.592
Cvtrs[6]=798.925
Cvtrs[7]=742.088
Cvtrs[8]=692.732
Cvtrs[9]=472.308

T=14980
Tve=14980
Cvtrs[0]=1038.36
Cvtrs[1]=890.41
Cvtrs[2]=779.511
Cvtrs[3]=865.298
Cvtrs[4]=742.008
Cvtrs[5]=649.592
Cvtrs[6]=798.925
Cvtrs[7]=742.088
Cvtrs[8]=692.732
Cvtrs[9]=472.308

T=14990
Tve=14990
Cvtrs[0]=1038.36
Cvtrs[1]=890.41
Cvtrs[2]=779.511
Cvtrs[3]=865.298
Cvtrs[4]=742.008
Cvtrs[5]=649.592
Cvtrs[6]=798.925
Cvtrs[7]=742.088
Cvtrs[8]=692.732
Cvtrs[9]=472.308
