
-------------------------------------------------------------------------
|    ___ _   _ ___                                                      |
|   / __| | | |_  )   Release 7.2.0 "Blackbird"                         |
|   \__ \ |_| |/ /                                                      |
|   |___/\___//___|   Suite (Computational Fluid Dynamics Code)         |
|                                                                       |
-------------------------------------------------------------------------
| SU2 Project Website: https://su2code.github.io                        |
|                                                                       |
| The SU2 Project is maintained by the SU2 Foundation                   |
| (http://su2foundation.org)                                            |
-------------------------------------------------------------------------
| Copyright 2012-2021, SU2 Contributors                                 |
|                                                                       |
| SU2 is free software; you can redistribute it and/or                  |
| modify it under the terms of the GNU Lesser General Public            |
| License as published by the Free Software Foundation; either          |
| version 2.1 of the License, or (at your option) any later version.    |
|                                                                       |
| SU2 is distributed in the hope that it will be useful,                |
| but WITHOUT ANY WARRANTY; without even the implied warranty of        |
| MERCHANTABILITY or FITNESS FOR A PARTICULAR PURPOSE. See the GNU      |
| Lesser General Public License for more details.                       |
|                                                                       |
| You should have received a copy of the GNU Lesser General Public      |
| License along with SU2. If not, see <http://www.gnu.org/licenses/>.   |
-------------------------------------------------------------------------

Parsing config file for zone 0


Error in "static short unsigned int CConfig::GetnDim(std::string, short unsigned int)": 
-------------------------------------------------------------------------
The SU2 mesh file named 5x5Mesh.su2 was not found.
------------------------------ Error Exit -------------------------------


application called MPI_Abort(MPI_COMM_WORLD, 1) - process 0
[unset]: write_line error; fd=-1 buf=:cmd=abort exitcode=1
:
system msg for write_line failure : Bad file descriptor
==================== Start Test: thermalbath ====================
/home/nijso/Codes/su2_bigfoot/SU2/TestCases/nonequilibrium/thermalbath/finitechemistry
thermalbath: FAILED
Output for the failed case
execution command: SU2_CFD thermalbath.cfg.autotest > thermalbath.cfg.log 2>&1
ERROR: The code was not able to get to the "Begin solver" section.
test_iter=10
test_vals (stored): 0.945997, 0.945997, -12.018025, -12.217291, -32.000000, 10.013239
sim_vals (computed): 
delta_vals: 
test duration: 0.00 min
==================== End Test: thermalbath ====================


-------------------------------------------------------------------------
|    ___ _   _ ___                                                      |
|   / __| | | |_  )   Release 7.2.0 "Blackbird"                         |
|   \__ \ |_| |/ /                                                      |
|   |___/\___//___|   Suite (Computational Fluid Dynamics Code)         |
|                                                                       |
-------------------------------------------------------------------------
| SU2 Project Website: https://su2code.github.io                        |
|                                                                       |
| The SU2 Project is maintained by the SU2 Foundation                   |
| (http://su2foundation.org)                                            |
-------------------------------------------------------------------------
| Copyright 2012-2021, SU2 Contributors                                 |
|                                                                       |
| SU2 is free software; you can redistribute it and/or                  |
| modify it under the terms of the GNU Lesser General Public            |
| License as published by the Free Software Foundation; either          |
| version 2.1 of the License, or (at your option) any later version.    |
|                                                                       |
| SU2 is distributed in the hope that it will be useful,                |
| but WITHOUT ANY WARRANTY; without even the implied warranty of        |
| MERCHANTABILITY or FITNESS FOR A PARTICULAR PURPOSE. See the GNU      |
| Lesser General Public License for more details.                       |
|                                                                       |
| You should have received a copy of the GNU Lesser General Public      |
| License along with SU2. If not, see <http://www.gnu.org/licenses/>.   |
-------------------------------------------------------------------------

Parsing config file for zone 0


Error in "static short unsigned int CConfig::GetnDim(std::string, short unsigned int)": 
-------------------------------------------------------------------------
The SU2 mesh file named 5x5Mesh.su2 was not found.
------------------------------ Error Exit -------------------------------


application called MPI_Abort(MPI_COMM_WORLD, 1) - process 0
[unset]: write_line error; fd=-1 buf=:cmd=abort exitcode=1
:
system msg for write_line failure : Bad file descriptor
==================== Start Test: thermalbath_frozen ====================
/home/nijso/Codes/su2_bigfoot/SU2/TestCases/nonequilibrium/thermalbath/frozen
thermalbath_frozen: FAILED
Output for the failed case
execution command: SU2_CFD thermalbath_frozen.cfg.autotest > thermalbath_frozen.cfg.log 2>&1
ERROR: The code was not able to get to the "Begin solver" section.
test_iter=10
test_vals (stored): -32.000000, -32.000000, -12.018022, -12.217291, -32.000000, 10.013545
sim_vals (computed): 
delta_vals: 
test duration: 0.00 min
==================== End Test: thermalbath_frozen ====================


-------------------------------------------------------------------------
|    ___ _   _ ___                                                      |
|   / __| | | |_  )   Release 7.2.0 "Blackbird"                         |
|   \__ \ |_| |/ /                                                      |
|   |___/\___//___|   Suite (Computational Fluid Dynamics Code)         |
|                                                                       |
-------------------------------------------------------------------------
| SU2 Project Website: https://su2code.github.io                        |
|                                                                       |
| The SU2 Project is maintained by the SU2 Foundation                   |
| (http://su2foundation.org)                                            |
-------------------------------------------------------------------------
| Copyright 2012-2021, SU2 Contributors                                 |
|                                                                       |
| SU2 is free software; you can redistribute it and/or                  |
| modify it under the terms of the GNU Lesser General Public            |
| License as published by the Free Software Foundation; either          |
| version 2.1 of the License, or (at your option) any later version.    |
|                                                                       |
| SU2 is distributed in the hope that it will be useful,                |
| but WITHOUT ANY WARRANTY; without even the implied warranty of        |
| MERCHANTABILITY or FITNESS FOR A PARTICULAR PURPOSE. See the GNU      |
| Lesser General Public License for more details.                       |
|                                                                       |
| You should have received a copy of the GNU Lesser General Public      |
| License along with SU2. If not, see <http://www.gnu.org/licenses/>.   |
-------------------------------------------------------------------------

Parsing config file for zone 0


Error in "static short unsigned int CConfig::GetnDim(std::string, short unsigned int)": 
-------------------------------------------------------------------------
The SU2 mesh file named invwedge.su2 was not found.
------------------------------ Error Exit -------------------------------


application called MPI_Abort(MPI_COMM_WORLD, 1) - process 0
[unset]: write_line error; fd=-1 buf=:cmd=abort exitcode=1
:
system msg for write_line failure : Bad file descriptor
==================== Start Test: invwedge ====================
/home/nijso/Codes/su2_bigfoot/SU2/TestCases/nonequilibrium/invwedge
invwedge: FAILED
Output for the failed case
execution command: SU2_CFD invwedge.cfg.autotest > invwedge.cfg.log 2>&1
ERROR: The code was not able to get to the "Begin solver" section.
test_iter=10
test_vals (stored): -0.956173, -1.480936, -16.738781, -17.063703, -17.011887, 2.371977, 1.732488, 5.399642, 0.953492
sim_vals (computed): 
delta_vals: 
test duration: 0.00 min
==================== End Test: invwedge ====================


-------------------------------------------------------------------------
|    ___ _   _ ___                                                      |
|   / __| | | |_  )   Release 7.2.0 "Blackbird"                         |
|   \__ \ |_| |/ /                                                      |
|   |___/\___//___|   Suite (Computational Fluid Dynamics Code)         |
|                                                                       |
-------------------------------------------------------------------------
| SU2 Project Website: https://su2code.github.io                        |
|                                                                       |
| The SU2 Project is maintained by the SU2 Foundation                   |
| (http://su2foundation.org)                                            |
-------------------------------------------------------------------------
| Copyright 2012-2021, SU2 Contributors                                 |
|                                                                       |
| SU2 is free software; you can redistribute it and/or                  |
| modify it under the terms of the GNU Lesser General Public            |
| License as published by the Free Software Foundation; either          |
| version 2.1 of the License, or (at your option) any later version.    |
|                                                                       |
| SU2 is distributed in the hope that it will be useful,                |
| but WITHOUT ANY WARRANTY; without even the implied warranty of        |
| MERCHANTABILITY or FITNESS FOR A PARTICULAR PURPOSE. See the GNU      |
| Lesser General Public License for more details.                       |
|                                                                       |
| You should have received a copy of the GNU Lesser General Public      |
| License along with SU2. If not, see <http://www.gnu.org/licenses/>.   |
-------------------------------------------------------------------------

Parsing config file for zone 0


Error in "static short unsigned int CConfig::GetnDim(std::string, short unsigned int)": 
-------------------------------------------------------------------------
The SU2 mesh file named viscwedge.su2 was not found.
------------------------------ Error Exit -------------------------------


application called MPI_Abort(MPI_COMM_WORLD, 1) - process 0
[unset]: write_line error; fd=-1 buf=:cmd=abort exitcode=1
:
system msg for write_line failure : Bad file descriptor
==================== Start Test: visc_cone ====================
/home/nijso/Codes/su2_bigfoot/SU2/TestCases/nonequilibrium/axi_visccone
visc_cone: FAILED
Output for the failed case
execution command: SU2_CFD axi_visccone.cfg.autotest > axi_visccone.cfg.log 2>&1
ERROR: The code was not able to get to the "Begin solver" section.
test_iter=10
test_vals (stored): -5.173078, -5.697841, -20.831296, -20.719164, -23.419769, -1.564084, -2.069040, 2.203924, -2.590729
sim_vals (computed): 
delta_vals: 
test duration: 0.00 min
==================== End Test: visc_cone ====================


-------------------------------------------------------------------------
|    ___ _   _ ___                                                      |
|   / __| | | |_  )   Release 7.2.0 "Blackbird"                         |
|   \__ \ |_| |/ /                                                      |
|   |___/\___//___|   Suite (Computational Fluid Dynamics Code)         |
|                                                                       |
-------------------------------------------------------------------------
| SU2 Project Website: https://su2code.github.io                        |
|                                                                       |
| The SU2 Project is maintained by the SU2 Foundation                   |
| (http://su2foundation.org)                                            |
-------------------------------------------------------------------------
| Copyright 2012-2021, SU2 Contributors                                 |
|                                                                       |
| SU2 is free software; you can redistribute it and/or                  |
| modify it under the terms of the GNU Lesser General Public            |
| License as published by the Free Software Foundation; either          |
| version 2.1 of the License, or (at your option) any later version.    |
|                                                                       |
| SU2 is distributed in the hope that it will be useful,                |
| but WITHOUT ANY WARRANTY; without even the implied warranty of        |
| MERCHANTABILITY or FITNESS FOR A PARTICULAR PURPOSE. See the GNU      |
| Lesser General Public License for more details.                       |
|                                                                       |
| You should have received a copy of the GNU Lesser General Public      |
| License along with SU2. If not, see <http://www.gnu.org/licenses/>.   |
-------------------------------------------------------------------------

Parsing config file for zone 0


Error in "static short unsigned int CConfig::GetnDim(std::string, short unsigned int)": 
-------------------------------------------------------------------------
The SU2 mesh file named mesh_channel_256x128.su2 was not found.
------------------------------ Error Exit -------------------------------


application called MPI_Abort(MPI_COMM_WORLD, 1) - process 0
[unset]: write_line error; fd=-1 buf=:cmd=abort exitcode=1
:
system msg for write_line failure : Bad file descriptor
==================== Start Test: dry run Euler ====================
/home/nijso/Codes/su2_bigfoot/SU2/TestCases/euler/channel
dry run Euler: FAILED
Output for the failed case
execution command: SU2_CFD -d inv_channel_RK.cfg > inv_channel_RK_check.log 2>&1
test duration: 0.00 min
==================== End Test: dry run Euler ====================


-------------------------------------------------------------------------
|    ___ _   _ ___                                                      |
|   / __| | | |_  )   Release 7.2.0 "Blackbird"                         |
|   \__ \ |_| |/ /                                                      |
|   |___/\___//___|   Suite (Computational Fluid Dynamics Code)         |
|                                                                       |
-------------------------------------------------------------------------
| SU2 Project Website: https://su2code.github.io                        |
|                                                                       |
| The SU2 Project is maintained by the SU2 Foundation                   |
| (http://su2foundation.org)                                            |
-------------------------------------------------------------------------
| Copyright 2012-2021, SU2 Contributors                                 |
|                                                                       |
| SU2 is free software; you can redistribute it and/or                  |
| modify it under the terms of the GNU Lesser General Public            |
| License as published by the Free Software Foundation; either          |
| version 2.1 of the License, or (at your option) any later version.    |
|                                                                       |
| SU2 is distributed in the hope that it will be useful,                |
| but WITHOUT ANY WARRANTY; without even the implied warranty of        |
| MERCHANTABILITY or FITNESS FOR A PARTICULAR PURPOSE. See the GNU      |
| Lesser General Public License for more details.                       |
|                                                                       |
| You should have received a copy of the GNU Lesser General Public      |
| License along with SU2. If not, see <http://www.gnu.org/licenses/>.   |
-------------------------------------------------------------------------

Parsing config file for zone 0


Error in "static short unsigned int CConfig::GetnDim(std::string, short unsigned int)": 
-------------------------------------------------------------------------
The SU2 mesh file named mesh_channel_256x128.su2 was not found.
------------------------------ Error Exit -------------------------------


application called MPI_Abort(MPI_COMM_WORLD, 1) - process 0
[unset]: write_line error; fd=-1 buf=:cmd=abort exitcode=1
:
system msg for write_line failure : Bad file descriptor
==================== Start Test: channel ====================
/home/nijso/Codes/su2_bigfoot/SU2/TestCases/euler/channel
channel: FAILED
Output for the failed case
execution command: SU2_CFD inv_channel_RK.cfg.autotest > inv_channel_RK.cfg.log 2>&1
ERROR: The code was not able to get to the "Begin solver" section.
test_iter=10
test_vals (stored): -2.475872, 3.046370, -0.203974, 0.036018
sim_vals (computed): 
delta_vals: 
test duration: 0.00 min
==================== End Test: channel ====================


-------------------------------------------------------------------------
|    ___ _   _ ___                                                      |
|   / __| | | |_  )   Release 7.2.0 "Blackbird"                         |
|   \__ \ |_| |/ /                                                      |
|   |___/\___//___|   Suite (Computational Fluid Dynamics Code)         |
|                                                                       |
-------------------------------------------------------------------------
| SU2 Project Website: https://su2code.github.io                        |
|                                                                       |
| The SU2 Project is maintained by the SU2 Foundation                   |
| (http://su2foundation.org)                                            |
-------------------------------------------------------------------------
| Copyright 2012-2021, SU2 Contributors                                 |
|                                                                       |
| SU2 is free software; you can redistribute it and/or                  |
| modify it under the terms of the GNU Lesser General Public            |
| License as published by the Free Software Foundation; either          |
| version 2.1 of the License, or (at your option) any later version.    |
|                                                                       |
| SU2 is distributed in the hope that it will be useful,                |
| but WITHOUT ANY WARRANTY; without even the implied warranty of        |
| MERCHANTABILITY or FITNESS FOR A PARTICULAR PURPOSE. See the GNU      |
| Lesser General Public License for more details.                       |
|                                                                       |
| You should have received a copy of the GNU Lesser General Public      |
| License along with SU2. If not, see <http://www.gnu.org/licenses/>.   |
-------------------------------------------------------------------------

Parsing config file for zone 0


Error in "static short unsigned int CConfig::GetnDim(std::string, short unsigned int)": 
-------------------------------------------------------------------------
The SU2 mesh file named mesh_NACA0012_inv.su2 was not found.
------------------------------ Error Exit -------------------------------


application called MPI_Abort(MPI_COMM_WORLD, 1) - process 0
[unset]: write_line error; fd=-1 buf=:cmd=abort exitcode=1
:
system msg for write_line failure : Bad file descriptor
==================== Start Test: naca0012 ====================
/home/nijso/Codes/su2_bigfoot/SU2/TestCases/euler/naca0012
naca0012: FAILED
Output for the failed case
execution command: SU2_CFD inv_NACA0012_Roe.cfg.autotest > inv_NACA0012_Roe.cfg.log 2>&1
ERROR: The code was not able to get to the "Begin solver" section.
test_iter=20
test_vals (stored): -4.023999, -3.515034, 0.339426, 0.022217
sim_vals (computed): 
delta_vals: 
test duration: 0.00 min
==================== End Test: naca0012 ====================


-------------------------------------------------------------------------
|    ___ _   _ ___                                                      |
|   / __| | | |_  )   Release 7.2.0 "Blackbird"                         |
|   \__ \ |_| |/ /                                                      |
|   |___/\___//___|   Suite (Computational Fluid Dynamics Code)         |
|                                                                       |
-------------------------------------------------------------------------
| SU2 Project Website: https://su2code.github.io                        |
|                                                                       |
| The SU2 Project is maintained by the SU2 Foundation                   |
| (http://su2foundation.org)                                            |
-------------------------------------------------------------------------
| Copyright 2012-2021, SU2 Contributors                                 |
|                                                                       |
| SU2 is free software; you can redistribute it and/or                  |
| modify it under the terms of the GNU Lesser General Public            |
| License as published by the Free Software Foundation; either          |
| version 2.1 of the License, or (at your option) any later version.    |
|                                                                       |
| SU2 is distributed in the hope that it will be useful,                |
| but WITHOUT ANY WARRANTY; without even the implied warranty of        |
| MERCHANTABILITY or FITNESS FOR A PARTICULAR PURPOSE. See the GNU      |
| Lesser General Public License for more details.                       |
|                                                                       |
| You should have received a copy of the GNU Lesser General Public      |
| License along with SU2. If not, see <http://www.gnu.org/licenses/>.   |
-------------------------------------------------------------------------

Parsing config file for zone 0


Error in "static short unsigned int CConfig::GetnDim(std::string, short unsigned int)": 
-------------------------------------------------------------------------
mesh_wedge_inv.cgns was not found or is not a properly formatted CGNS file.
Note that SU2 expects unstructured CGNS files in ADF data format.
------------------------------ Error Exit -------------------------------


application called MPI_Abort(MPI_COMM_WORLD, 1) - process 0
[unset]: write_line error; fd=-1 buf=:cmd=abort exitcode=1
:
system msg for write_line failure : Bad file descriptor
==================== Start Test: wedge ====================
/home/nijso/Codes/su2_bigfoot/SU2/TestCases/euler/wedge
wedge: FAILED
Output for the failed case
execution command: SU2_CFD inv_wedge_HLLC.cfg.autotest > inv_wedge_HLLC.cfg.log 2>&1
ERROR: The code was not able to get to the "Begin solver" section.
test_iter=20
test_vals (stored): -0.942862, 4.784581, -0.208106, 0.036665
sim_vals (computed): 
delta_vals: 
test duration: 0.00 min
==================== End Test: wedge ====================


-------------------------------------------------------------------------
|    ___ _   _ ___                                                      |
|   / __| | | |_  )   Release 7.2.0 "Blackbird"                         |
|   \__ \ |_| |/ /                                                      |
|   |___/\___//___|   Suite (Computational Fluid Dynamics Code)         |
|                                                                       |
-------------------------------------------------------------------------
| SU2 Project Website: https://su2code.github.io                        |
|                                                                       |
| The SU2 Project is maintained by the SU2 Foundation                   |
| (http://su2foundation.org)                                            |
-------------------------------------------------------------------------
| Copyright 2012-2021, SU2 Contributors                                 |
|                                                                       |
| SU2 is free software; you can redistribute it and/or                  |
| modify it under the terms of the GNU Lesser General Public            |
| License as published by the Free Software Foundation; either          |
| version 2.1 of the License, or (at your option) any later version.    |
|                                                                       |
| SU2 is distributed in the hope that it will be useful,                |
| but WITHOUT ANY WARRANTY; without even the implied warranty of        |
| MERCHANTABILITY or FITNESS FOR A PARTICULAR PURPOSE. See the GNU      |
| Lesser General Public License for more details.                       |
|                                                                       |
| You should have received a copy of the GNU Lesser General Public      |
| License along with SU2. If not, see <http://www.gnu.org/licenses/>.   |
-------------------------------------------------------------------------

Parsing config file for zone 0


Error in "static short unsigned int CConfig::GetnDim(std::string, short unsigned int)": 
-------------------------------------------------------------------------
The SU2 mesh file named mesh_ONERAM6_inv_ffd.su2 was not found.
------------------------------ Error Exit -------------------------------


application called MPI_Abort(MPI_COMM_WORLD, 1) - process 0
[unset]: write_line error; fd=-1 buf=:cmd=abort exitcode=1
:
system msg for write_line failure : Bad file descriptor
==================== Start Test: oneram6 ====================
/home/nijso/Codes/su2_bigfoot/SU2/TestCases/euler/oneram6
oneram6: FAILED
Output for the failed case
execution command: SU2_CFD inv_ONERAM6.cfg.autotest > inv_ONERAM6.cfg.log 2>&1
ERROR: The code was not able to get to the "Begin solver" section.
test_iter=10
test_vals (stored): -9.279396, -8.697739, 0.281703, 0.011821
sim_vals (computed): 
delta_vals: 
test duration: 0.00 min
==================== End Test: oneram6 ====================


-------------------------------------------------------------------------
|    ___ _   _ ___                                                      |
|   / __| | | |_  )   Release 7.2.0 "Blackbird"                         |
|   \__ \ |_| |/ /                                                      |
|   |___/\___//___|   Suite (Computational Fluid Dynamics Code)         |
|                                                                       |
-------------------------------------------------------------------------
| SU2 Project Website: https://su2code.github.io                        |
|                                                                       |
| The SU2 Project is maintained by the SU2 Foundation                   |
| (http://su2foundation.org)                                            |
-------------------------------------------------------------------------
| Copyright 2012-2021, SU2 Contributors                                 |
|                                                                       |
| SU2 is free software; you can redistribute it and/or                  |
| modify it under the terms of the GNU Lesser General Public            |
| License as published by the Free Software Foundation; either          |
| version 2.1 of the License, or (at your option) any later version.    |
|                                                                       |
| SU2 is distributed in the hope that it will be useful,                |
| but WITHOUT ANY WARRANTY; without even the implied warranty of        |
| MERCHANTABILITY or FITNESS FOR A PARTICULAR PURPOSE. See the GNU      |
| Lesser General Public License for more details.                       |
|                                                                       |
| You should have received a copy of the GNU Lesser General Public      |
| License along with SU2. If not, see <http://www.gnu.org/licenses/>.   |
-------------------------------------------------------------------------

Parsing config file for zone 0


Error in "static short unsigned int CConfig::GetnDim(std::string, short unsigned int)": 
-------------------------------------------------------------------------
The SU2 mesh file named mesh_NACA0012_inv.su2 was not found.
------------------------------ Error Exit -------------------------------


application called MPI_Abort(MPI_COMM_WORLD, 1) - process 0
[unset]: write_line error; fd=-1 buf=:cmd=abort exitcode=1
:
system msg for write_line failure : Bad file descriptor
==================== Start Test: fixedcl_naca0012 ====================
/home/nijso/Codes/su2_bigfoot/SU2/TestCases/fixed_cl/naca0012
fixedcl_naca0012: FAILED
Output for the failed case
execution command: SU2_CFD inv_NACA0012.cfg.autotest > inv_NACA0012.cfg.log 2>&1
ERROR: The code was not able to get to the "Begin solver" section.
test_iter=10
test_vals (stored): -7.382410, -1.879887, 0.300000, 0.019471
sim_vals (computed): 
delta_vals: 
test duration: 0.00 min
==================== End Test: fixedcl_naca0012 ====================

9 lines read from control file: polarCtrl.in
 
--------------------------------------------------------------------------------------
 
Configuration file: inv_NACA0012.cfg
PolarSweepType = 1 Polar sweep in aoa using 5 angles/Mach No 
 
--------------------------------------------------------------------------------------
 
 
===============================================================================
   Polar sweep in 2D ; output in Body system
===============================================================================
 
Mach =  0.8 AOA =  0.0
case :DIRECT_M_0.8_AOA_0.0

-------------------------------------------------------------------------
|    ___ _   _ ___                                                      |
|   / __| | | |_  )   Release 7.1.1 "Blackbird"                         |
|   \__ \ |_| |/ /                                                      |
|   |___/\___//___|   Suite (Computational Fluid Dynamics Code)         |
|                                                                       |
-------------------------------------------------------------------------
| SU2 Project Website: https://su2code.github.io                        |
|                                                                       |
| The SU2 Project is maintained by the SU2 Foundation                   |
| (http://su2foundation.org)                                            |
-------------------------------------------------------------------------
| Copyright 2012-2021, SU2 Contributors                                 |
|                                                                       |
| SU2 is free software; you can redistribute it and/or                  |
| modify it under the terms of the GNU Lesser General Public            |
| License as published by the Free Software Foundation; either          |
| version 2.1 of the License, or (at your option) any later version.    |
|                                                                       |
| SU2 is distributed in the hope that it will be useful,                |
| but WITHOUT ANY WARRANTY; without even the implied warranty of        |
| MERCHANTABILITY or FITNESS FOR A PARTICULAR PURPOSE. See the GNU      |
| Lesser General Public License for more details.                       |
|                                                                       |
| You should have received a copy of the GNU Lesser General Public      |
| License along with SU2. If not, see <http://www.gnu.org/licenses/>.   |
-------------------------------------------------------------------------

Parsing config file for zone 0


Error in "static short unsigned int CConfig::GetnDim(std::string, short unsigned int)": 
-------------------------------------------------------------------------
The SU2 mesh file named mesh_NACA0012_inv.su2 was not found.
------------------------------ Error Exit -------------------------------


==================== Start Test: polar_naca0012 ====================
/home/nijso/Codes/su2_bigfoot/SU2/TestCases/polar/naca0012
polar_naca0012: FAILED
Output for the failed case
execution command: compute_polar.py -n 1 -i 11 > inv_NACA0012.cfg.log
ERROR: The code was not able to get to the "Begin solver" section.
test_iter=10
test_vals (stored): -1.243326, 4.224483, 0.016432, 0.016145
sim_vals (computed): 
delta_vals: 
test duration: 0.00 min
==================== End Test: polar_naca0012 ====================


-------------------------------------------------------------------------
|    ___ _   _ ___                                                      |
|   / __| | | |_  )   Release 7.2.0 "Blackbird"                         |
|   \__ \ |_| |/ /                                                      |
|   |___/\___//___|   Suite (Computational Fluid Dynamics Code)         |
|                                                                       |
-------------------------------------------------------------------------
| SU2 Project Website: https://su2code.github.io                        |
|                                                                       |
| The SU2 Project is maintained by the SU2 Foundation                   |
| (http://su2foundation.org)                                            |
-------------------------------------------------------------------------
| Copyright 2012-2021, SU2 Contributors                                 |
|                                                                       |
| SU2 is free software; you can redistribute it and/or                  |
| modify it under the terms of the GNU Lesser General Public            |
| License as published by the Free Software Foundation; either          |
| version 2.1 of the License, or (at your option) any later version.    |
|                                                                       |
| SU2 is distributed in the hope that it will be useful,                |
| but WITHOUT ANY WARRANTY; without even the implied warranty of        |
| MERCHANTABILITY or FITNESS FOR A PARTICULAR PURPOSE. See the GNU      |
| Lesser General Public License for more details.                       |
|                                                                       |
| You should have received a copy of the GNU Lesser General Public      |
| License along with SU2. If not, see <http://www.gnu.org/licenses/>.   |
-------------------------------------------------------------------------

Parsing config file for zone 0


Error in "static short unsigned int CConfig::GetnDim(std::string, short unsigned int)": 
-------------------------------------------------------------------------
The SU2 mesh file named blunt_91.su2 was not found.
------------------------------ Error Exit -------------------------------


application called MPI_Abort(MPI_COMM_WORLD, 1) - process 0
[unset]: write_line error; fd=-1 buf=:cmd=abort exitcode=1
:
system msg for write_line failure : Bad file descriptor
==================== Start Test: bluntbody ====================
/home/nijso/Codes/su2_bigfoot/SU2/TestCases/euler/bluntbody
bluntbody: FAILED
Output for the failed case
execution command: SU2_CFD blunt.cfg.autotest > blunt.cfg.log 2>&1
ERROR: The code was not able to get to the "Begin solver" section.
test_iter=20
test_vals (stored): 0.540009, 6.916653, -0.000000, 1.868975
sim_vals (computed): 
delta_vals: 
test duration: 0.00 min
==================== End Test: bluntbody ====================


-------------------------------------------------------------------------
|    ___ _   _ ___                                                      |
|   / __| | | |_  )   Release 7.2.0 "Blackbird"                         |
|   \__ \ |_| |/ /                                                      |
|   |___/\___//___|   Suite (Computational Fluid Dynamics Code)         |
|                                                                       |
-------------------------------------------------------------------------
| SU2 Project Website: https://su2code.github.io                        |
|                                                                       |
| The SU2 Project is maintained by the SU2 Foundation                   |
| (http://su2foundation.org)                                            |
-------------------------------------------------------------------------
| Copyright 2012-2021, SU2 Contributors                                 |
|                                                                       |
| SU2 is free software; you can redistribute it and/or                  |
| modify it under the terms of the GNU Lesser General Public            |
| License as published by the Free Software Foundation; either          |
| version 2.1 of the License, or (at your option) any later version.    |
|                                                                       |
| SU2 is distributed in the hope that it will be useful,                |
| but WITHOUT ANY WARRANTY; without even the implied warranty of        |
| MERCHANTABILITY or FITNESS FOR A PARTICULAR PURPOSE. See the GNU      |
| Lesser General Public License for more details.                       |
|                                                                       |
| You should have received a copy of the GNU Lesser General Public      |
| License along with SU2. If not, see <http://www.gnu.org/licenses/>.   |
-------------------------------------------------------------------------

Parsing config file for zone 0


Error in "static short unsigned int CConfig::GetnDim(std::string, short unsigned int)": 
-------------------------------------------------------------------------
The SU2 mesh file named mesh_flatplate_65x65.su2 was not found.
------------------------------ Error Exit -------------------------------


application called MPI_Abort(MPI_COMM_WORLD, 1) - process 0
[unset]: write_line error; fd=-1 buf=:cmd=abort exitcode=1
:
system msg for write_line failure : Bad file descriptor
==================== Start Test: dry run NS ====================
/home/nijso/Codes/su2_bigfoot/SU2/TestCases/navierstokes/flatplate
dry run NS: FAILED
Output for the failed case
execution command: SU2_CFD -d lam_flatplate.cfg > lam_flatplate_check.log 2>&1
test duration: 0.00 min
==================== End Test: dry run NS ====================


-------------------------------------------------------------------------
|    ___ _   _ ___                                                      |
|   / __| | | |_  )   Release 7.2.0 "Blackbird"                         |
|   \__ \ |_| |/ /                                                      |
|   |___/\___//___|   Suite (Computational Fluid Dynamics Code)         |
|                                                                       |
-------------------------------------------------------------------------
| SU2 Project Website: https://su2code.github.io                        |
|                                                                       |
| The SU2 Project is maintained by the SU2 Foundation                   |
| (http://su2foundation.org)                                            |
-------------------------------------------------------------------------
| Copyright 2012-2021, SU2 Contributors                                 |
|                                                                       |
| SU2 is free software; you can redistribute it and/or                  |
| modify it under the terms of the GNU Lesser General Public            |
| License as published by the Free Software Foundation; either          |
| version 2.1 of the License, or (at your option) any later version.    |
|                                                                       |
| SU2 is distributed in the hope that it will be useful,                |
| but WITHOUT ANY WARRANTY; without even the implied warranty of        |
| MERCHANTABILITY or FITNESS FOR A PARTICULAR PURPOSE. See the GNU      |
| Lesser General Public License for more details.                       |
|                                                                       |
| You should have received a copy of the GNU Lesser General Public      |
| License along with SU2. If not, see <http://www.gnu.org/licenses/>.   |
-------------------------------------------------------------------------

Parsing config file for zone 0


Error in "static short unsigned int CConfig::GetnDim(std::string, short unsigned int)": 
-------------------------------------------------------------------------
The SU2 mesh file named mesh_flatplate_65x65.su2 was not found.
------------------------------ Error Exit -------------------------------


application called MPI_Abort(MPI_COMM_WORLD, 1) - process 0
[unset]: write_line error; fd=-1 buf=:cmd=abort exitcode=1
:
system msg for write_line failure : Bad file descriptor
==================== Start Test: flatplate ====================
/home/nijso/Codes/su2_bigfoot/SU2/TestCases/navierstokes/flatplate
flatplate: FAILED
Output for the failed case
execution command: SU2_CFD lam_flatplate.cfg.autotest > lam_flatplate.cfg.log 2>&1
ERROR: The code was not able to get to the "Begin solver" section.
test_iter=20
test_vals (stored): -4.680777, 0.781234, -0.135957, 0.022977, 0.002854, 2.362100, -2.359200
sim_vals (computed): 
delta_vals: 
test duration: 0.00 min
==================== End Test: flatplate ====================


-------------------------------------------------------------------------
|    ___ _   _ ___                                                      |
|   / __| | | |_  )   Release 7.2.0 "Blackbird"                         |
|   \__ \ |_| |/ /                                                      |
|   |___/\___//___|   Suite (Computational Fluid Dynamics Code)         |
|                                                                       |
-------------------------------------------------------------------------
| SU2 Project Website: https://su2code.github.io                        |
|                                                                       |
| The SU2 Project is maintained by the SU2 Foundation                   |
| (http://su2foundation.org)                                            |
-------------------------------------------------------------------------
| Copyright 2012-2021, SU2 Contributors                                 |
|                                                                       |
| SU2 is free software; you can redistribute it and/or                  |
| modify it under the terms of the GNU Lesser General Public            |
| License as published by the Free Software Foundation; either          |
| version 2.1 of the License, or (at your option) any later version.    |
|                                                                       |
| SU2 is distributed in the hope that it will be useful,                |
| but WITHOUT ANY WARRANTY; without even the implied warranty of        |
| MERCHANTABILITY or FITNESS FOR A PARTICULAR PURPOSE. See the GNU      |
| Lesser General Public License for more details.                       |
|                                                                       |
| You should have received a copy of the GNU Lesser General Public      |
| License along with SU2. If not, see <http://www.gnu.org/licenses/>.   |
-------------------------------------------------------------------------

Parsing config file for zone 0


Error in "static short unsigned int CConfig::GetnDim(std::string, short unsigned int)": 
-------------------------------------------------------------------------
The SU2 mesh file named mesh_cylinder_lam.su2 was not found.
------------------------------ Error Exit -------------------------------


application called MPI_Abort(MPI_COMM_WORLD, 1) - process 0
[unset]: write_line error; fd=-1 buf=:cmd=abort exitcode=1
:
system msg for write_line failure : Bad file descriptor
==================== Start Test: cylinder ====================
/home/nijso/Codes/su2_bigfoot/SU2/TestCases/navierstokes/cylinder
cylinder: FAILED
Output for the failed case
execution command: SU2_CFD lam_cylinder.cfg.autotest > lam_cylinder.cfg.log 2>&1
ERROR: The code was not able to get to the "Begin solver" section.
test_iter=25
test_vals (stored): -6.765430, -1.297426, 0.019508, 0.310015
sim_vals (computed): 
delta_vals: 
test duration: 0.00 min
==================== End Test: cylinder ====================


-------------------------------------------------------------------------
|    ___ _   _ ___                                                      |
|   / __| | | |_  )   Release 7.2.0 "Blackbird"                         |
|   \__ \ |_| |/ /                                                      |
|   |___/\___//___|   Suite (Computational Fluid Dynamics Code)         |
|                                                                       |
-------------------------------------------------------------------------
| SU2 Project Website: https://su2code.github.io                        |
|                                                                       |
| The SU2 Project is maintained by the SU2 Foundation                   |
| (http://su2foundation.org)                                            |
-------------------------------------------------------------------------
| Copyright 2012-2021, SU2 Contributors                                 |
|                                                                       |
| SU2 is free software; you can redistribute it and/or                  |
| modify it under the terms of the GNU Lesser General Public            |
| License as published by the Free Software Foundation; either          |
| version 2.1 of the License, or (at your option) any later version.    |
|                                                                       |
| SU2 is distributed in the hope that it will be useful,                |
| but WITHOUT ANY WARRANTY; without even the implied warranty of        |
| MERCHANTABILITY or FITNESS FOR A PARTICULAR PURPOSE. See the GNU      |
| Lesser General Public License for more details.                       |
|                                                                       |
| You should have received a copy of the GNU Lesser General Public      |
| License along with SU2. If not, see <http://www.gnu.org/licenses/>.   |
-------------------------------------------------------------------------

Parsing config file for zone 0


Error in "static short unsigned int CConfig::GetnDim(std::string, short unsigned int)": 
-------------------------------------------------------------------------
The SU2 mesh file named mesh_cylinder_lam.su2 was not found.
------------------------------ Error Exit -------------------------------


application called MPI_Abort(MPI_COMM_WORLD, 1) - process 0
[unset]: write_line error; fd=-1 buf=:cmd=abort exitcode=1
:
system msg for write_line failure : Bad file descriptor
==================== Start Test: cylinder_lowmach ====================
/home/nijso/Codes/su2_bigfoot/SU2/TestCases/navierstokes/cylinder
cylinder_lowmach: FAILED
Output for the failed case
execution command: SU2_CFD cylinder_lowmach.cfg.autotest > cylinder_lowmach.cfg.log 2>&1
ERROR: The code was not able to get to the "Begin solver" section.
test_iter=25
test_vals (stored): -6.850123, -1.388088, -0.056090, 108.140176
sim_vals (computed): 
delta_vals: 
test duration: 0.00 min
==================== End Test: cylinder_lowmach ====================


-------------------------------------------------------------------------
|    ___ _   _ ___                                                      |
|   / __| | | |_  )   Release 7.2.0 "Blackbird"                         |
|   \__ \ |_| |/ /                                                      |
|   |___/\___//___|   Suite (Computational Fluid Dynamics Code)         |
|                                                                       |
-------------------------------------------------------------------------
| SU2 Project Website: https://su2code.github.io                        |
|                                                                       |
| The SU2 Project is maintained by the SU2 Foundation                   |
| (http://su2foundation.org)                                            |
-------------------------------------------------------------------------
| Copyright 2012-2021, SU2 Contributors                                 |
|                                                                       |
| SU2 is free software; you can redistribute it and/or                  |
| modify it under the terms of the GNU Lesser General Public            |
| License as published by the Free Software Foundation; either          |
| version 2.1 of the License, or (at your option) any later version.    |
|                                                                       |
| SU2 is distributed in the hope that it will be useful,                |
| but WITHOUT ANY WARRANTY; without even the implied warranty of        |
| MERCHANTABILITY or FITNESS FOR A PARTICULAR PURPOSE. See the GNU      |
| Lesser General Public License for more details.                       |
|                                                                       |
| You should have received a copy of the GNU Lesser General Public      |
| License along with SU2. If not, see <http://www.gnu.org/licenses/>.   |
-------------------------------------------------------------------------

Parsing config file for zone 0


Error in "static short unsigned int CConfig::GetnDim(std::string, short unsigned int)": 
-------------------------------------------------------------------------
The SU2 mesh file named mesh_poiseuille_51x51.su2 was not found.
------------------------------ Error Exit -------------------------------


application called MPI_Abort(MPI_COMM_WORLD, 1) - process 0
[unset]: write_line error; fd=-1 buf=:cmd=abort exitcode=1
:
system msg for write_line failure : Bad file descriptor
==================== Start Test: poiseuille ====================
/home/nijso/Codes/su2_bigfoot/SU2/TestCases/navierstokes/poiseuille
poiseuille: FAILED
Output for the failed case
execution command: SU2_CFD lam_poiseuille.cfg.autotest > lam_poiseuille.cfg.log 2>&1
ERROR: The code was not able to get to the "Begin solver" section.
test_iter=10
test_vals (stored): -5.050732, 0.648355, 0.012273, 13.643219
sim_vals (computed): 
delta_vals: 
test duration: 0.00 min
==================== End Test: poiseuille ====================


-------------------------------------------------------------------------
|    ___ _   _ ___                                                      |
|   / __| | | |_  )   Release 7.2.0 "Blackbird"                         |
|   \__ \ |_| |/ /                                                      |
|   |___/\___//___|   Suite (Computational Fluid Dynamics Code)         |
|                                                                       |
-------------------------------------------------------------------------
| SU2 Project Website: https://su2code.github.io                        |
|                                                                       |
| The SU2 Project is maintained by the SU2 Foundation                   |
| (http://su2foundation.org)                                            |
-------------------------------------------------------------------------
| Copyright 2012-2021, SU2 Contributors                                 |
|                                                                       |
| SU2 is free software; you can redistribute it and/or                  |
| modify it under the terms of the GNU Lesser General Public            |
| License as published by the Free Software Foundation; either          |
| version 2.1 of the License, or (at your option) any later version.    |
|                                                                       |
| SU2 is distributed in the hope that it will be useful,                |
| but WITHOUT ANY WARRANTY; without even the implied warranty of        |
| MERCHANTABILITY or FITNESS FOR A PARTICULAR PURPOSE. See the GNU      |
| Lesser General Public License for more details.                       |
|                                                                       |
| You should have received a copy of the GNU Lesser General Public      |
| License along with SU2. If not, see <http://www.gnu.org/licenses/>.   |
-------------------------------------------------------------------------

Parsing config file for zone 0


Error in "static short unsigned int CConfig::GetnDim(std::string, short unsigned int)": 
-------------------------------------------------------------------------
The SU2 mesh file named mesh_poiseuille_51x51.su2 was not found.
------------------------------ Error Exit -------------------------------


application called MPI_Abort(MPI_COMM_WORLD, 1) - process 0
[unset]: write_line error; fd=-1 buf=:cmd=abort exitcode=1
:
system msg for write_line failure : Bad file descriptor
==================== Start Test: poiseuille_profile ====================
/home/nijso/Codes/su2_bigfoot/SU2/TestCases/navierstokes/poiseuille
poiseuille_profile: FAILED
Output for the failed case
execution command: SU2_CFD profile_poiseuille.cfg.autotest > profile_poiseuille.cfg.log 2>&1
ERROR: The code was not able to get to the "Begin solver" section.
test_iter=10
test_vals (stored): -12.494720, -7.711373, -0.000000, 2.085796
sim_vals (computed): 
delta_vals: 
test duration: 0.00 min
==================== End Test: poiseuille_profile ====================


-------------------------------------------------------------------------
|    ___ _   _ ___                                                      |
|   / __| | | |_  )   Release 7.2.0 "Blackbird"                         |
|   \__ \ |_| |/ /                                                      |
|   |___/\___//___|   Suite (Computational Fluid Dynamics Code)         |
|                                                                       |
-------------------------------------------------------------------------
| SU2 Project Website: https://su2code.github.io                        |
|                                                                       |
| The SU2 Project is maintained by the SU2 Foundation                   |
| (http://su2foundation.org)                                            |
-------------------------------------------------------------------------
| Copyright 2012-2021, SU2 Contributors                                 |
|                                                                       |
| SU2 is free software; you can redistribute it and/or                  |
| modify it under the terms of the GNU Lesser General Public            |
| License as published by the Free Software Foundation; either          |
| version 2.1 of the License, or (at your option) any later version.    |
|                                                                       |
| SU2 is distributed in the hope that it will be useful,                |
| but WITHOUT ANY WARRANTY; without even the implied warranty of        |
| MERCHANTABILITY or FITNESS FOR A PARTICULAR PURPOSE. See the GNU      |
| Lesser General Public License for more details.                       |
|                                                                       |
| You should have received a copy of the GNU Lesser General Public      |
| License along with SU2. If not, see <http://www.gnu.org/licenses/>.   |
-------------------------------------------------------------------------

Parsing config file for zone 0


Error in "static short unsigned int CConfig::GetnDim(std::string, short unsigned int)": 
-------------------------------------------------------------------------
The SU2 mesh file named mesh_RAE2822_turb.su2 was not found.
------------------------------ Error Exit -------------------------------


application called MPI_Abort(MPI_COMM_WORLD, 1) - process 0
[unset]: write_line error; fd=-1 buf=:cmd=abort exitcode=1
:
system msg for write_line failure : Bad file descriptor
==================== Start Test: dry run RANS ====================
/home/nijso/Codes/su2_bigfoot/SU2/TestCases/rans/rae2822
dry run RANS: FAILED
Output for the failed case
execution command: SU2_CFD -d turb_SA_RAE2822.cfg > turb_SA_RAE2822_check.log 2>&1
test duration: 0.00 min
==================== End Test: dry run RANS ====================


-------------------------------------------------------------------------
|    ___ _   _ ___                                                      |
|   / __| | | |_  )   Release 7.2.0 "Blackbird"                         |
|   \__ \ |_| |/ /                                                      |
|   |___/\___//___|   Suite (Computational Fluid Dynamics Code)         |
|                                                                       |
-------------------------------------------------------------------------
| SU2 Project Website: https://su2code.github.io                        |
|                                                                       |
| The SU2 Project is maintained by the SU2 Foundation                   |
| (http://su2foundation.org)                                            |
-------------------------------------------------------------------------
| Copyright 2012-2021, SU2 Contributors                                 |
|                                                                       |
| SU2 is free software; you can redistribute it and/or                  |
| modify it under the terms of the GNU Lesser General Public            |
| License as published by the Free Software Foundation; either          |
| version 2.1 of the License, or (at your option) any later version.    |
|                                                                       |
| SU2 is distributed in the hope that it will be useful,                |
| but WITHOUT ANY WARRANTY; without even the implied warranty of        |
| MERCHANTABILITY or FITNESS FOR A PARTICULAR PURPOSE. See the GNU      |
| Lesser General Public License for more details.                       |
|                                                                       |
| You should have received a copy of the GNU Lesser General Public      |
| License along with SU2. If not, see <http://www.gnu.org/licenses/>.   |
-------------------------------------------------------------------------

Parsing config file for zone 0


Error in "static short unsigned int CConfig::GetnDim(std::string, short unsigned int)": 
-------------------------------------------------------------------------
The SU2 mesh file named mesh_RAE2822_turb.su2 was not found.
------------------------------ Error Exit -------------------------------


application called MPI_Abort(MPI_COMM_WORLD, 1) - process 0
[unset]: write_line error; fd=-1 buf=:cmd=abort exitcode=1
:
system msg for write_line failure : Bad file descriptor
==================== Start Test: rae2822_sa ====================
/home/nijso/Codes/su2_bigfoot/SU2/TestCases/rans/rae2822
rae2822_sa: FAILED
Output for the failed case
execution command: SU2_CFD turb_SA_RAE2822.cfg.autotest > turb_SA_RAE2822.cfg.log 2>&1
ERROR: The code was not able to get to the "Begin solver" section.
test_iter=20
test_vals (stored): -2.020123, -5.269330, 0.807147, 0.060499
sim_vals (computed): 
delta_vals: 
test duration: 0.00 min
==================== End Test: rae2822_sa ====================


-------------------------------------------------------------------------
|    ___ _   _ ___                                                      |
|   / __| | | |_  )   Release 7.2.0 "Blackbird"                         |
|   \__ \ |_| |/ /                                                      |
|   |___/\___//___|   Suite (Computational Fluid Dynamics Code)         |
|                                                                       |
-------------------------------------------------------------------------
| SU2 Project Website: https://su2code.github.io                        |
|                                                                       |
| The SU2 Project is maintained by the SU2 Foundation                   |
| (http://su2foundation.org)                                            |
-------------------------------------------------------------------------
| Copyright 2012-2021, SU2 Contributors                                 |
|                                                                       |
| SU2 is free software; you can redistribute it and/or                  |
| modify it under the terms of the GNU Lesser General Public            |
| License as published by the Free Software Foundation; either          |
| version 2.1 of the License, or (at your option) any later version.    |
|                                                                       |
| SU2 is distributed in the hope that it will be useful,                |
| but WITHOUT ANY WARRANTY; without even the implied warranty of        |
| MERCHANTABILITY or FITNESS FOR A PARTICULAR PURPOSE. See the GNU      |
| Lesser General Public License for more details.                       |
|                                                                       |
| You should have received a copy of the GNU Lesser General Public      |
| License along with SU2. If not, see <http://www.gnu.org/licenses/>.   |
-------------------------------------------------------------------------

Parsing config file for zone 0


Error in "static short unsigned int CConfig::GetnDim(std::string, short unsigned int)": 
-------------------------------------------------------------------------
The SU2 mesh file named mesh_RAE2822_turb.su2 was not found.
------------------------------ Error Exit -------------------------------


application called MPI_Abort(MPI_COMM_WORLD, 1) - process 0
[unset]: write_line error; fd=-1 buf=:cmd=abort exitcode=1
:
system msg for write_line failure : Bad file descriptor
==================== Start Test: rae2822_sst ====================
/home/nijso/Codes/su2_bigfoot/SU2/TestCases/rans/rae2822
rae2822_sst: FAILED
Output for the failed case
execution command: SU2_CFD turb_SST_RAE2822.cfg.autotest > turb_SST_RAE2822.cfg.log 2>&1
ERROR: The code was not able to get to the "Begin solver" section.
test_iter=20
test_vals (stored): -0.510639, 4.872266, 0.812659, 0.061095
sim_vals (computed): 
delta_vals: 
test duration: 0.00 min
==================== End Test: rae2822_sst ====================


-------------------------------------------------------------------------
|    ___ _   _ ___                                                      |
|   / __| | | |_  )   Release 7.2.0 "Blackbird"                         |
|   \__ \ |_| |/ /                                                      |
|   |___/\___//___|   Suite (Computational Fluid Dynamics Code)         |
|                                                                       |
-------------------------------------------------------------------------
| SU2 Project Website: https://su2code.github.io                        |
|                                                                       |
| The SU2 Project is maintained by the SU2 Foundation                   |
| (http://su2foundation.org)                                            |
-------------------------------------------------------------------------
| Copyright 2012-2021, SU2 Contributors                                 |
|                                                                       |
| SU2 is free software; you can redistribute it and/or                  |
| modify it under the terms of the GNU Lesser General Public            |
| License as published by the Free Software Foundation; either          |
| version 2.1 of the License, or (at your option) any later version.    |
|                                                                       |
| SU2 is distributed in the hope that it will be useful,                |
| but WITHOUT ANY WARRANTY; without even the implied warranty of        |
| MERCHANTABILITY or FITNESS FOR A PARTICULAR PURPOSE. See the GNU      |
| Lesser General Public License for more details.                       |
|                                                                       |
| You should have received a copy of the GNU Lesser General Public      |
| License along with SU2. If not, see <http://www.gnu.org/licenses/>.   |
-------------------------------------------------------------------------

Parsing config file for zone 0


Error in "static short unsigned int CConfig::GetnDim(std::string, short unsigned int)": 
-------------------------------------------------------------------------
The SU2 mesh file named mesh_RAE2822_turb.su2 was not found.
------------------------------ Error Exit -------------------------------


application called MPI_Abort(MPI_COMM_WORLD, 1) - process 0
[unset]: write_line error; fd=-1 buf=:cmd=abort exitcode=1
:
system msg for write_line failure : Bad file descriptor
==================== Start Test: rae2822_sst_sust ====================
/home/nijso/Codes/su2_bigfoot/SU2/TestCases/rans/rae2822
rae2822_sst_sust: FAILED
Output for the failed case
execution command: SU2_CFD turb_SST_SUST_RAE2822.cfg.autotest > turb_SST_SUST_RAE2822.cfg.log 2>&1
ERROR: The code was not able to get to the "Begin solver" section.
test_iter=20
test_vals (stored): -2.431741, 4.872266, 0.812658, 0.061095
sim_vals (computed): 
delta_vals: 
test duration: 0.00 min
==================== End Test: rae2822_sst_sust ====================


-------------------------------------------------------------------------
|    ___ _   _ ___                                                      |
|   / __| | | |_  )   Release 7.2.0 "Blackbird"                         |
|   \__ \ |_| |/ /                                                      |
|   |___/\___//___|   Suite (Computational Fluid Dynamics Code)         |
|                                                                       |
-------------------------------------------------------------------------
| SU2 Project Website: https://su2code.github.io                        |
|                                                                       |
| The SU2 Project is maintained by the SU2 Foundation                   |
| (http://su2foundation.org)                                            |
-------------------------------------------------------------------------
| Copyright 2012-2021, SU2 Contributors                                 |
|                                                                       |
| SU2 is free software; you can redistribute it and/or                  |
| modify it under the terms of the GNU Lesser General Public            |
| License as published by the Free Software Foundation; either          |
| version 2.1 of the License, or (at your option) any later version.    |
|                                                                       |
| SU2 is distributed in the hope that it will be useful,                |
| but WITHOUT ANY WARRANTY; without even the implied warranty of        |
| MERCHANTABILITY or FITNESS FOR A PARTICULAR PURPOSE. See the GNU      |
| Lesser General Public License for more details.                       |
|                                                                       |
| You should have received a copy of the GNU Lesser General Public      |
| License along with SU2. If not, see <http://www.gnu.org/licenses/>.   |
-------------------------------------------------------------------------

Parsing config file for zone 0


Error in "static short unsigned int CConfig::GetnDim(std::string, short unsigned int)": 
-------------------------------------------------------------------------
The SU2 mesh file named mesh_flatplate_turb_137x97.su2 was not found.
------------------------------ Error Exit -------------------------------


application called MPI_Abort(MPI_COMM_WORLD, 1) - process 0
[unset]: write_line error; fd=-1 buf=:cmd=abort exitcode=1
:
system msg for write_line failure : Bad file descriptor
==================== Start Test: turb_flatplate ====================
/home/nijso/Codes/su2_bigfoot/SU2/TestCases/rans/flatplate
turb_flatplate: FAILED
Output for the failed case
execution command: SU2_CFD turb_SA_flatplate.cfg.autotest > turb_SA_flatplate.cfg.log 2>&1
ERROR: The code was not able to get to the "Begin solver" section.
test_iter=20
test_vals (stored): -4.157169, -6.737133, -0.176253, 0.057446
sim_vals (computed): 
delta_vals: 
test duration: 0.00 min
==================== End Test: turb_flatplate ====================


-------------------------------------------------------------------------
|    ___ _   _ ___                                                      |
|   / __| | | |_  )   Release 7.2.0 "Blackbird"                         |
|   \__ \ |_| |/ /                                                      |
|   |___/\___//___|   Suite (Computational Fluid Dynamics Code)         |
|                                                                       |
-------------------------------------------------------------------------
| SU2 Project Website: https://su2code.github.io                        |
|                                                                       |
| The SU2 Project is maintained by the SU2 Foundation                   |
| (http://su2foundation.org)                                            |
-------------------------------------------------------------------------
| Copyright 2012-2021, SU2 Contributors                                 |
|                                                                       |
| SU2 is free software; you can redistribute it and/or                  |
| modify it under the terms of the GNU Lesser General Public            |
| License as published by the Free Software Foundation; either          |
| version 2.1 of the License, or (at your option) any later version.    |
|                                                                       |
| SU2 is distributed in the hope that it will be useful,                |
| but WITHOUT ANY WARRANTY; without even the implied warranty of        |
| MERCHANTABILITY or FITNESS FOR A PARTICULAR PURPOSE. See the GNU      |
| Lesser General Public License for more details.                       |
|                                                                       |
| You should have received a copy of the GNU Lesser General Public      |
| License along with SU2. If not, see <http://www.gnu.org/licenses/>.   |
-------------------------------------------------------------------------

Parsing config file for zone 0


Error in "static short unsigned int CConfig::GetnDim(std::string, short unsigned int)": 
-------------------------------------------------------------------------
The SU2 mesh file named mesh_ONERAM6_turb_hexa_43008.su2 was not found.
------------------------------ Error Exit -------------------------------


application called MPI_Abort(MPI_COMM_WORLD, 1) - process 0
[unset]: write_line error; fd=-1 buf=:cmd=abort exitcode=1
:
system msg for write_line failure : Bad file descriptor
==================== Start Test: turb_oneram6 ====================
/home/nijso/Codes/su2_bigfoot/SU2/TestCases/rans/oneram6
turb_oneram6: FAILED
Output for the failed case
execution command: SU2_CFD turb_ONERAM6.cfg.autotest > turb_ONERAM6.cfg.log 2>&1
ERROR: The code was not able to get to the "Begin solver" section.
test_iter=10
test_vals (stored): -2.388841, -6.689414, 0.230321, 0.157640
sim_vals (computed): 
delta_vals: 
test duration: 0.00 min
==================== End Test: turb_oneram6 ====================


-------------------------------------------------------------------------
|    ___ _   _ ___                                                      |
|   / __| | | |_  )   Release 7.2.0 "Blackbird"                         |
|   \__ \ |_| |/ /                                                      |
|   |___/\___//___|   Suite (Computational Fluid Dynamics Code)         |
|                                                                       |
-------------------------------------------------------------------------
| SU2 Project Website: https://su2code.github.io                        |
|                                                                       |
| The SU2 Project is maintained by the SU2 Foundation                   |
| (http://su2foundation.org)                                            |
-------------------------------------------------------------------------
| Copyright 2012-2021, SU2 Contributors                                 |
|                                                                       |
| SU2 is free software; you can redistribute it and/or                  |
| modify it under the terms of the GNU Lesser General Public            |
| License as published by the Free Software Foundation; either          |
| version 2.1 of the License, or (at your option) any later version.    |
|                                                                       |
| SU2 is distributed in the hope that it will be useful,                |
| but WITHOUT ANY WARRANTY; without even the implied warranty of        |
| MERCHANTABILITY or FITNESS FOR A PARTICULAR PURPOSE. See the GNU      |
| Lesser General Public License for more details.                       |
|                                                                       |
| You should have received a copy of the GNU Lesser General Public      |
| License along with SU2. If not, see <http://www.gnu.org/licenses/>.   |
-------------------------------------------------------------------------

Parsing config file for zone 0


Error in "static short unsigned int CConfig::GetnDim(std::string, short unsigned int)": 
-------------------------------------------------------------------------
The SU2 mesh file named n0012_225-65.su2 was not found.
------------------------------ Error Exit -------------------------------


application called MPI_Abort(MPI_COMM_WORLD, 1) - process 0
[unset]: write_line error; fd=-1 buf=:cmd=abort exitcode=1
:
system msg for write_line failure : Bad file descriptor
==================== Start Test: turb_naca0012_sa ====================
/home/nijso/Codes/su2_bigfoot/SU2/TestCases/rans/naca0012
turb_naca0012_sa: FAILED
Output for the failed case
execution command: SU2_CFD turb_NACA0012_sa.cfg.autotest > turb_NACA0012_sa.cfg.log 2>&1
ERROR: The code was not able to get to the "Begin solver" section.
test_iter=10
test_vals (stored): -11.133933, -14.498178, 1.064330, 0.019756
sim_vals (computed): 
delta_vals: 
test duration: 0.00 min
==================== End Test: turb_naca0012_sa ====================


-------------------------------------------------------------------------
|    ___ _   _ ___                                                      |
|   / __| | | |_  )   Release 7.2.0 "Blackbird"                         |
|   \__ \ |_| |/ /                                                      |
|   |___/\___//___|   Suite (Computational Fluid Dynamics Code)         |
|                                                                       |
-------------------------------------------------------------------------
| SU2 Project Website: https://su2code.github.io                        |
|                                                                       |
| The SU2 Project is maintained by the SU2 Foundation                   |
| (http://su2foundation.org)                                            |
-------------------------------------------------------------------------
| Copyright 2012-2021, SU2 Contributors                                 |
|                                                                       |
| SU2 is free software; you can redistribute it and/or                  |
| modify it under the terms of the GNU Lesser General Public            |
| License as published by the Free Software Foundation; either          |
| version 2.1 of the License, or (at your option) any later version.    |
|                                                                       |
| SU2 is distributed in the hope that it will be useful,                |
| but WITHOUT ANY WARRANTY; without even the implied warranty of        |
| MERCHANTABILITY or FITNESS FOR A PARTICULAR PURPOSE. See the GNU      |
| Lesser General Public License for more details.                       |
|                                                                       |
| You should have received a copy of the GNU Lesser General Public      |
| License along with SU2. If not, see <http://www.gnu.org/licenses/>.   |
-------------------------------------------------------------------------

Parsing config file for zone 0


Error in "static short unsigned int CConfig::GetnDim(std::string, short unsigned int)": 
-------------------------------------------------------------------------
The SU2 mesh file named n0012_225-65.su2 was not found.
------------------------------ Error Exit -------------------------------


application called MPI_Abort(MPI_COMM_WORLD, 1) - process 0
[unset]: write_line error; fd=-1 buf=:cmd=abort exitcode=1
:
system msg for write_line failure : Bad file descriptor
==================== Start Test: turb_naca0012_sst ====================
/home/nijso/Codes/su2_bigfoot/SU2/TestCases/rans/naca0012
turb_naca0012_sst: FAILED
Output for the failed case
execution command: SU2_CFD turb_NACA0012_sst.cfg.autotest > turb_NACA0012_sst.cfg.log 2>&1
ERROR: The code was not able to get to the "Begin solver" section.
test_iter=10
test_vals (stored): -11.451010, -12.798258, -5.863895, 1.049989, 0.019163, -1.925018
sim_vals (computed): 
delta_vals: 
test duration: 0.00 min
==================== End Test: turb_naca0012_sst ====================


-------------------------------------------------------------------------
|    ___ _   _ ___                                                      |
|   / __| | | |_  )   Release 7.2.0 "Blackbird"                         |
|   \__ \ |_| |/ /                                                      |
|   |___/\___//___|   Suite (Computational Fluid Dynamics Code)         |
|                                                                       |
-------------------------------------------------------------------------
| SU2 Project Website: https://su2code.github.io                        |
|                                                                       |
| The SU2 Project is maintained by the SU2 Foundation                   |
| (http://su2foundation.org)                                            |
[...]
|                                                                       |
| SU2 is free software; you can redistribute it and/or                  |
| modify it under the terms of the GNU Lesser General Public            |
| License as published by the Free Software Foundation; either          |
| version 2.1 of the License, or (at your option) any later version.    |
|                                                                       |
| SU2 is distributed in the hope that it will be useful,                |
| but WITHOUT ANY WARRANTY; without even the implied warranty of        |
| MERCHANTABILITY or FITNESS FOR A PARTICULAR PURPOSE. See the GNU      |
| Lesser General Public License for more details.                       |
|                                                                       |
| You should have received a copy of the GNU Lesser General Public      |
| License along with SU2. If not, see <http://www.gnu.org/licenses/>.   |
-------------------------------------------------------------------------

Parsing config file for zone 0


Error in "static short unsigned int CConfig::GetnDim(std::string, short unsigned int)": 
-------------------------------------------------------------------------
The SU2 mesh file named mesh_flatplate_140x100.su2 was not found.
------------------------------ Error Exit -------------------------------


application called MPI_Abort(MPI_COMM_WORLD, 1) - process 0
[unset]: write_line error; fd=-1 buf=:cmd=abort exitcode=1
:
system msg for write_line failure : Bad file descriptor
==================== Start Test: turb_sst_wallfunction_flatplate ====================
/home/nijso/Codes/su2_bigfoot/SU2/TestCases/wallfunctions/flatplate/compressible_SST
turb_sst_wallfunction_flatplate: FAILED
Output for the failed case
execution command: SU2_CFD turb_SST_flatplate.cfg.autotest > turb_SST_flatplate.cfg.log 2>&1
ERROR: The code was not able to get to the "Begin solver" section.
test_iter=10
test_vals (stored): -3.070676, -5.386050, 0.057197, 0.005347
sim_vals (computed): 
delta_vals: 
test duration: 0.00 min
==================== End Test: turb_sst_wallfunction_flatplate ====================



Error in "void CConfig::SetPostprocessing(SU2_COMPONENT, short unsigned int, short unsigned int)": 
-------------------------------------------------------------------------
Inlet types for incompressible problem improperly specified.
 Use INC_INLET_TYPE= VELOCITY_INLET or PRESSURE_INLET.
 Must list a type for each inlet marker, including duplicates, e.g.,
 INC_INLET_TYPE= VELOCITY_INLET VELOCITY_INLET PRESSURE_INLET
------------------------------ Error Exit -------------------------------


application called MPI_Abort(MPI_COMM_WORLD, 1) - process 0
[unset]: write_line error; fd=-1 buf=:cmd=abort exitcode=1
:
system msg for write_line failure : Bad file descriptor
==================== Start Test: inc_turb_sst_wallfunction_flatplate ====================
/home/nijso/Codes/su2_bigfoot/SU2/TestCases/wallfunctions/flatplate/incompressible_SST
inc_turb_sst_wallfunction_flatplate: FAILED
Output for the failed case
execution command: SU2_CFD turb_SST_flatplate.cfg.autotest > turb_SST_flatplate.cfg.log 2>&1
ERROR: The code was not able to get to the "Begin solver" section.
test_iter=10
test_vals (stored): -3.070676, -5.386050, 0.057197, 0.005347
sim_vals (computed): 
delta_vals: 
test duration: 0.00 min
==================== End Test: inc_turb_sst_wallfunction_flatplate ====================


-------------------------------------------------------------------------
|    ___ _   _ ___                                                      |
|   / __| | | |_  )   Release 7.2.0 "Blackbird"                         |
|   \__ \ |_| |/ /                                                      |
|   |___/\___//___|   Suite (Computational Fluid Dynamics Code)         |
|                                                                       |
-------------------------------------------------------------------------
| SU2 Project Website: https://su2code.github.io                        |
|                                                                       |
| The SU2 Project is maintained by the SU2 Foundation                   |
| (http://su2foundation.org)                                            |
-------------------------------------------------------------------------
| Copyright 2012-2021, SU2 Contributors                                 |
|                                                                       |
| SU2 is free software; you can redistribute it and/or                  |
| modify it under the terms of the GNU Lesser General Public            |
| License as published by the Free Software Foundation; either          |
| version 2.1 of the License, or (at your option) any later version.    |
|                                                                       |
| SU2 is distributed in the hope that it will be useful,                |
| but WITHOUT ANY WARRANTY; without even the implied warranty of        |
| MERCHANTABILITY or FITNESS FOR A PARTICULAR PURPOSE. See the GNU      |
| Lesser General Public License for more details.                       |
|                                                                       |
| You should have received a copy of the GNU Lesser General Public      |
| License along with SU2. If not, see <http://www.gnu.org/licenses/>.   |
-------------------------------------------------------------------------

Parsing config file for zone 0


Error in "static short unsigned int CConfig::GetnDim(std::string, short unsigned int)": 
-------------------------------------------------------------------------
The SU2 mesh file named mesh_flatplate_140x100.su2 was not found.
------------------------------ Error Exit -------------------------------


application called MPI_Abort(MPI_COMM_WORLD, 1) - process 0
[unset]: write_line error; fd=-1 buf=:cmd=abort exitcode=1
:
system msg for write_line failure : Bad file descriptor
==================== Start Test: turb_sa_wallfunction_flatplate ====================
/home/nijso/Codes/su2_bigfoot/SU2/TestCases/wallfunctions/flatplate/compressible_SA
turb_sa_wallfunction_flatplate: FAILED
Output for the failed case
execution command: SU2_CFD turb_SA_flatplate.cfg.autotest > turb_SA_flatplate.cfg.log 2>&1
ERROR: The code was not able to get to the "Begin solver" section.
test_iter=10
test_vals (stored): -3.070676, -5.386050, 0.057197, 0.005347
sim_vals (computed): 
delta_vals: 
test duration: 0.00 min
==================== End Test: turb_sa_wallfunction_flatplate ====================



Error in "void CConfig::SetPostprocessing(SU2_COMPONENT, short unsigned int, short unsigned int)": 
-------------------------------------------------------------------------
Inlet types for incompressible problem improperly specified.
 Use INC_INLET_TYPE= VELOCITY_INLET or PRESSURE_INLET.
 Must list a type for each inlet marker, including duplicates, e.g.,
 INC_INLET_TYPE= VELOCITY_INLET VELOCITY_INLET PRESSURE_INLET
------------------------------ Error Exit -------------------------------


application called MPI_Abort(MPI_COMM_WORLD, 1) - process 0
[unset]: write_line error; fd=-1 buf=:cmd=abort exitcode=1
:
system msg for write_line failure : Bad file descriptor
==================== Start Test: inc_turb_sa_wallfunction_flatplate ====================
/home/nijso/Codes/su2_bigfoot/SU2/TestCases/wallfunctions/flatplate/incompressible_SA
inc_turb_sa_wallfunction_flatplate: FAILED
Output for the failed case
execution command: SU2_CFD turb_SA_flatplate.cfg.autotest > turb_SA_flatplate.cfg.log 2>&1
ERROR: The code was not able to get to the "Begin solver" section.
test_iter=10
test_vals (stored): -3.070676, -5.386050, 0.057197, 0.005347
sim_vals (computed): 
delta_vals: 
test duration: 0.00 min
==================== End Test: inc_turb_sa_wallfunction_flatplate ====================


-------------------------------------------------------------------------
|    ___ _   _ ___                                                      |
|   / __| | | |_  )   Release 7.2.0 "Blackbird"                         |
|   \__ \ |_| |/ /                                                      |
|   |___/\___//___|   Suite (Computational Fluid Dynamics Code)         |
|                                                                       |
-------------------------------------------------------------------------
| SU2 Project Website: https://su2code.github.io                        |
|                                                                       |
| The SU2 Project is maintained by the SU2 Foundation                   |
| (http://su2foundation.org)                                            |
-------------------------------------------------------------------------
| Copyright 2012-2021, SU2 Contributors                                 |
|                                                                       |
| SU2 is free software; you can redistribute it and/or                  |
| modify it under the terms of the GNU Lesser General Public            |
| License as published by the Free Software Foundation; either          |
| version 2.1 of the License, or (at your option) any later version.    |
|                                                                       |
| SU2 is distributed in the hope that it will be useful,                |
| but WITHOUT ANY WARRANTY; without even the implied warranty of        |
| MERCHANTABILITY or FITNESS FOR A PARTICULAR PURPOSE. See the GNU      |
| Lesser General Public License for more details.                       |
|                                                                       |
| You should have received a copy of the GNU Lesser General Public      |
| License along with SU2. If not, see <http://www.gnu.org/licenses/>.   |
-------------------------------------------------------------------------

Parsing config file for zone 0


Error in "static short unsigned int CConfig::GetnDim(std::string, short unsigned int)": 
-------------------------------------------------------------------------
The SU2 mesh file named Naca0012_nPoly4.su2 was not found.
------------------------------ Error Exit -------------------------------


application called MPI_Abort(MPI_COMM_WORLD, 1) - process 0
[unset]: write_line error; fd=-1 buf=:cmd=abort exitcode=1
:
system msg for write_line failure : Bad file descriptor
==================== Start Test: dry run DG Euler ====================
/home/nijso/Codes/su2_bigfoot/SU2/TestCases/hom_euler/NACA0012_5thOrder
dry run DG Euler: FAILED
Output for the failed case
execution command: SU2_CFD -d fem_NACA0012_reg.cfg > fem_NACA0012_reg_check.log 2>&1
test duration: 0.00 min
==================== End Test: dry run DG Euler ====================


-------------------------------------------------------------------------
|    ___ _   _ ___                                                      |
|   / __| | | |_  )   Release 7.2.0 "Blackbird"                         |
|   \__ \ |_| |/ /                                                      |
|   |___/\___//___|   Suite (Computational Fluid Dynamics Code)         |
|                                                                       |
-------------------------------------------------------------------------
| SU2 Project Website: https://su2code.github.io                        |
|                                                                       |
| The SU2 Project is maintained by the SU2 Foundation                   |
| (http://su2foundation.org)                                            |
-------------------------------------------------------------------------
| Copyright 2012-2021, SU2 Contributors                                 |
|                                                                       |
| SU2 is free software; you can redistribute it and/or                  |
| modify it under the terms of the GNU Lesser General Public            |
| License as published by the Free Software Foundation; either          |
| version 2.1 of the License, or (at your option) any later version.    |
|                                                                       |
| SU2 is distributed in the hope that it will be useful,                |
| but WITHOUT ANY WARRANTY; without even the implied warranty of        |
| MERCHANTABILITY or FITNESS FOR A PARTICULAR PURPOSE. See the GNU      |
| Lesser General Public License for more details.                       |
|                                                                       |
| You should have received a copy of the GNU Lesser General Public      |
| License along with SU2. If not, see <http://www.gnu.org/licenses/>.   |
-------------------------------------------------------------------------

Parsing config file for zone 0


Error in "static short unsigned int CConfig::GetnDim(std::string, short unsigned int)": 
-------------------------------------------------------------------------
The SU2 mesh file named Naca0012_nPoly4.su2 was not found.
------------------------------ Error Exit -------------------------------


application called MPI_Abort(MPI_COMM_WORLD, 1) - process 0
[unset]: write_line error; fd=-1 buf=:cmd=abort exitcode=1
:
system msg for write_line failure : Bad file descriptor
==================== Start Test: fem_euler_naca0012 ====================
/home/nijso/Codes/su2_bigfoot/SU2/TestCases/hom_euler/NACA0012_5thOrder
fem_euler_naca0012: FAILED
Output for the failed case
execution command: SU2_CFD fem_NACA0012_reg.cfg.autotest > fem_NACA0012_reg.cfg.log 2>&1
ERROR: The code was not able to get to the "Begin solver" section.
test_iter=10
test_vals (stored): -6.519946, -5.976944, 0.255551, 0.000028
sim_vals (computed): 
delta_vals: 
test duration: 0.00 min
==================== End Test: fem_euler_naca0012 ====================


-------------------------------------------------------------------------
|    ___ _   _ ___                                                      |
|   / __| | | |_  )   Release 7.2.0 "Blackbird"                         |
|   \__ \ |_| |/ /                                                      |
|   |___/\___//___|   Suite (Computational Fluid Dynamics Code)         |
|                                                                       |
-------------------------------------------------------------------------
| SU2 Project Website: https://su2code.github.io                        |
|                                                                       |
| The SU2 Project is maintained by the SU2 Foundation                   |
| (http://su2foundation.org)                                            |
-------------------------------------------------------------------------
| Copyright 2012-2021, SU2 Contributors                                 |
|                                                                       |
| SU2 is free software; you can redistribute it and/or                  |
| modify it under the terms of the GNU Lesser General Public            |
| License as published by the Free Software Foundation; either          |
| version 2.1 of the License, or (at your option) any later version.    |
|                                                                       |
| SU2 is distributed in the hope that it will be useful,                |
| but WITHOUT ANY WARRANTY; without even the implied warranty of        |
| MERCHANTABILITY or FITNESS FOR A PARTICULAR PURPOSE. See the GNU      |
| Lesser General Public License for more details.                       |
|                                                                       |
| You should have received a copy of the GNU Lesser General Public      |
| License along with SU2. If not, see <http://www.gnu.org/licenses/>.   |
-------------------------------------------------------------------------

Parsing config file for zone 0


Error in "static short unsigned int CConfig::GetnDim(std::string, short unsigned int)": 
-------------------------------------------------------------------------
The SU2 mesh file named mesh_flatplate_64x64_p4.su2 was not found.
------------------------------ Error Exit -------------------------------


application called MPI_Abort(MPI_COMM_WORLD, 1) - process 0
[unset]: write_line error; fd=-1 buf=:cmd=abort exitcode=1
:
system msg for write_line failure : Bad file descriptor
==================== Start Test: dry run DG NS ====================
/home/nijso/Codes/su2_bigfoot/SU2/TestCases/hom_navierstokes/FlatPlate/nPoly4
dry run DG NS: FAILED
Output for the failed case
execution command: SU2_CFD -d lam_flatplate_reg.cfg > lam_flatplate_reg_check.log 2>&1
test duration: 0.00 min
==================== End Test: dry run DG NS ====================


-------------------------------------------------------------------------
|    ___ _   _ ___                                                      |
|   / __| | | |_  )   Release 7.2.0 "Blackbird"                         |
|   \__ \ |_| |/ /                                                      |
|   |___/\___//___|   Suite (Computational Fluid Dynamics Code)         |
|                                                                       |
-------------------------------------------------------------------------
| SU2 Project Website: https://su2code.github.io                        |
|                                                                       |
| The SU2 Project is maintained by the SU2 Foundation                   |
| (http://su2foundation.org)                                            |
-------------------------------------------------------------------------
| Copyright 2012-2021, SU2 Contributors                                 |
|                                                                       |
| SU2 is free software; you can redistribute it and/or                  |
| modify it under the terms of the GNU Lesser General Public            |
| License as published by the Free Software Foundation; either          |
| version 2.1 of the License, or (at your option) any later version.    |
|                                                                       |
| SU2 is distributed in the hope that it will be useful,                |
| but WITHOUT ANY WARRANTY; without even the implied warranty of        |
| MERCHANTABILITY or FITNESS FOR A PARTICULAR PURPOSE. See the GNU      |
| Lesser General Public License for more details.                       |
|                                                                       |
| You should have received a copy of the GNU Lesser General Public      |
| License along with SU2. If not, see <http://www.gnu.org/licenses/>.   |
-------------------------------------------------------------------------

Parsing config file for zone 0


Error in "static short unsigned int CConfig::GetnDim(std::string, short unsigned int)": 
-------------------------------------------------------------------------
The SU2 mesh file named mesh_flatplate_64x64_p4.su2 was not found.
------------------------------ Error Exit -------------------------------


application called MPI_Abort(MPI_COMM_WORLD, 1) - process 0
[unset]: write_line error; fd=-1 buf=:cmd=abort exitcode=1
:
system msg for write_line failure : Bad file descriptor
==================== Start Test: fem_ns_flatplate ====================
/home/nijso/Codes/su2_bigfoot/SU2/TestCases/hom_navierstokes/FlatPlate/nPoly4
fem_ns_flatplate: FAILED
Output for the failed case
execution command: SU2_CFD lam_flatplate_reg.cfg.autotest > lam_flatplate_reg.cfg.log 2>&1
ERROR: The code was not able to get to the "Begin solver" section.
test_iter=25
test_vals (stored): 1.383727, 3.175247, 0.058387, 0.257951
sim_vals (computed): 
delta_vals: 
test duration: 0.00 min
==================== End Test: fem_ns_flatplate ====================

==================== Start Test: fem_ns_cylinder ====================
/home/nijso/Codes/su2_bigfoot/SU2/TestCases/hom_navierstokes/CylinderViscous/nPoly3
