%%%%%%%%%%%%%%%%%%%%%%%%%%%%%%%%%%%%%%%%%%%%%%%%%%%%%%%%%%%%%%%%%%%%%%%%%%%%%%%%
%                                                                              %
% SU2 configuration file                                                       %
% Case description: Species mixing with 2 species: Hydrogen and air.           % 
%                   1 transport equation is being solved(For H2 in this case). %
%                   Including JST scheme with preconditioning for enthalpy.    %
% Author: Cristopher Morales Ubal                                              %
% Institution: Eindhoven University of Technology                              %
% Date: 2025/06/27                                                             %
% File Version 8.0.1 "Harrier"                                                 %
%                                                                              %
%%%%%%%%%%%%%%%%%%%%%%%%%%%%%%%%%%%%%%%%%%%%%%%%%%%%%%%%%%%%%%%%%%%%%%%%%%%%%%%%

% ------------- DIRECT, ADJOINT, AND LINEARIZED PROBLEM DEFINITION ------------%
%
SOLVER= INC_NAVIER_STOKES
KIND_TURB_MODEL= NONE
%
% ---------------- INCOMPRESSIBLE FLOW CONDITION DEFINITION -------------------%
%
INC_DENSITY_MODEL= VARIABLE
INC_DENSITY_INIT= 0.0807
%
INC_VELOCITY_INIT= ( 0.1, 0.0, 0.0 )
%
INC_ENERGY_EQUATION= YES
INC_TEMPERATURE_INIT= 350.0
%
INC_NONDIM= DIMENSIONAL
%
% -------------------- FLUID PROPERTIES ------------------------------------- %
%
FLUID_MODEL= FLUID_MIXTURE
%
THERMODYNAMIC_PRESSURE= 101325.0 
%
MOLECULAR_WEIGHT= 2.01588, 28.960
%
SPECIFIC_HEAT_CP = 14310, 1009.39
%
CONDUCTIVITY_MODEL= CONSTANT_CONDUCTIVITY
THERMAL_CONDUCTIVITY_CONSTANT= 0.187, 0.0258 
%
PRANDTL_LAM= 0.72, 0.72
TURBULENT_CONDUCTIVITY_MODEL= NONE
PRANDTL_TURB= 0.90, 0.90
%
% --------------------------- VISCOSITY MODEL ---------------------------------%
%
VISCOSITY_MODEL= CONSTANT_VISCOSITY
%
MU_CONSTANT= 8.9E-06, 1.8551E-05 
% 
MU_REF= 8.411E-05, 1.716E-05
%
MU_T_REF= 273, 273   
%
SUTHERLAND_CONSTANT= 97, 111
%
MIXING_VISCOSITY_MODEL = WILKE
%
% -------------------- BOUNDARY CONDITION DEFINITION --------------------------%
%
MARKER_HEATFLUX= ( wall, 0.0)
MARKER_SYM= ( axis )
%
SPECIFIED_INLET_PROFILE= NO
INLET_FILENAME= inlet_venturi.dat
INC_INLET_TYPE=  VELOCITY_INLET VELOCITY_INLET
MARKER_INLET= ( gas_inlet,       350, 0.1, 1.0,  0.0, 0.0,\ 
                air_axial_inlet, 300, 0.1, 0.0, -1.0, 0.0 )
MARKER_INLET_SPECIES= (gas_inlet, 0.014467517838966, \          
                       air_axial_inlet, 0.020137986304114414)           
%
INC_OUTLET_TYPE= PRESSURE_OUTLET
MARKER_OUTLET= ( outlet, 0.0 )
%
% ------------- COMMON PARAMETERS DEFINING THE NUMERICAL METHOD ---------------%
%
NUM_METHOD_GRAD= WEIGHTED_LEAST_SQUARES
%
CFL_NUMBER= 100
CFL_REDUCTION_SPECIES= 1.0
CFL_REDUCTION_TURB= 1.0
CFL_ADAPT= YES
CFL_ADAPT_PARAM= ( 0.5, 2.0, 10, 1000, 1E-4)
%
% Run commented Iter for good results
ITER= 2000
%
% ------------------------ LINEAR SOLVER DEFINITION ---------------------------%
%
LINEAR_SOLVER= FGMRES
LINEAR_SOLVER_PREC= ILU
LINEAR_SOLVER_ERROR= 1E-5 
LINEAR_SOLVER_ITER= 10
%
% -------------------- FLOW NUMERICAL METHOD DEFINITION -----------------------%
%
CONV_NUM_METHOD_FLOW= JST
MUSCL_FLOW= NO
SLOPE_LIMITER_FLOW = NONE
TIME_DISCRE_FLOW= EULER_IMPLICIT
%
% -------------------- SCALAR TRANSPORT ---------------------------------------%
%
KIND_SCALAR_MODEL= SPECIES_TRANSPORT
%
DIFFUSIVITY_MODEL = UNITY_LEWIS
%
CONV_NUM_METHOD_SPECIES= BOUNDED_SCALAR
MUSCL_SPECIES= NO
SLOPE_LIMITER_SPECIES = NONE
%
TIME_DISCRE_SPECIES= EULER_IMPLICIT
%
SPECIES_INIT= 0.014467517838966
SPECIES_CLIPPING= NO
SPECIES_CLIPPING_MIN= 0.0
SPECIES_CLIPPING_MAX= 1.0
%
% -------------------- TURBULENT TRANSPORT ---------------------------------------%
%
CONV_NUM_METHOD_TURB= BOUNDED_SCALAR
MUSCL_TURB= NO
%
% --------------------------- CONVERGENCE PARAMETERS --------------------------%
%
CONV_FIELD= RMS_PRESSURE, RMS_VELOCITY-X, RMS_VELOCITY-Y, RMS_SPECIES
CONV_RESIDUAL_MINVAL= -18
CONV_STARTITER= 10
%
% ------------------------- INPUT/OUTPUT INFORMATION --------------------------%
%
MESH_FILENAME= primitiveVenturi.su2
SCREEN_OUTPUT= INNER_ITER WALL_TIME \
               RMS_PRESSURE RMS_VELOCITY-X RMS_VELOCITY-Y RMS_ENTHALPY RMS_SPECIES_0 \
               LINSOL_ITER LINSOL_RESIDUAL \
               LINSOL_ITER_SPECIES LINSOL_RESIDUAL_SPECIES \
               SURFACE_SPECIES_0 AVG_CFL
SCREEN_WRT_FREQ_INNER= 10
%
HISTORY_OUTPUT= ITER RMS_RES LINSOL SPECIES_COEFF SPECIES_COEFF_SURF
CONV_FILENAME= history
MARKER_ANALYZE= gas_inlet, air_axial_inlet, outlet
MARKER_ANALYZE_AVERAGE= AREA
%
OUTPUT_FILES= RESTART_ASCII, PARAVIEW_MULTIBLOCK
VOLUME_OUTPUT= RESIDUAL, PRIMITIVE, TIMESTEP
OUTPUT_WRT_FREQ= 1000
%
RESTART_SOL= NO
READ_BINARY_RESTART= NO
