%%%%%%%%%%%%%%%%%%%%%%%%%%%%%%%%%%%%%%%%%%%%%%%%%%%%%%%%%%%%%%%%%%%%%%%%%%%%%%%%
%                                                                              %
% SU2 configuration file                                                       %
% Case description: Subsonic incompressible inviscid flow around a NACA0012    %
% Author: Thomas D. Economon                                                   %
% Date: 2018.10.30                                                             %
% File Version 8.0.0 "Harrier"                                                 %
%                                                                              %
%%%%%%%%%%%%%%%%%%%%%%%%%%%%%%%%%%%%%%%%%%%%%%%%%%%%%%%%%%%%%%%%%%%%%%%%%%%%%%%%

% ------------- DIRECT, ADJOINT, AND LINEARIZED PROBLEM DEFINITION ------------%
%
SOLVER= INC_EULER
MATH_PROBLEM= DISCRETE_ADJOINT
RESTART_SOL= NO
READ_BINARY_RESTART= NO

% ---------------- INCOMPRESSIBLE FLOW CONDITION DEFINITION -------------------%
%
INC_DENSITY_INIT= 1.2886
INC_VELOCITY_INIT= ( 33.1588, 1.15793, 0.0 )

% ---------------------- REFERENCE VALUE DEFINITION ---------------------------%
%
REF_ORIGIN_MOMENT_X = 0.25
REF_ORIGIN_MOMENT_Y = 0.00
REF_ORIGIN_MOMENT_Z = 0.00
REF_LENGTH= 1.0
REF_AREA= 1.0

% ----------------------- BOUNDARY CONDITION DEFINITION -----------------------%
%
MARKER_EULER= ( airfoil )
MARKER_FAR= ( farfield )
MARKER_PLOTTING= ( airfoil )
MARKER_MONITORING= ( airfoil )

% ------------- COMMON PARAMETERS TO DEFINE THE NUMERICAL METHOD --------------%
%
NUM_METHOD_GRAD= GREEN_GAUSS
CFL_NUMBER= 8.0
CFL_ADAPT= NO
CFL_ADAPT_PARAM= ( 1.5, 0.5, 1.0, 100.0 )
RK_ALPHA_COEFF= ( 0.66667, 0.66667, 1.000000 )
ITER= 501

OBJECTIVE_FUNCTION= LIFT
OBJECTIVE_WEIGHT = 1.0

% -------------------------- MULTIGRID PARAMETERS -----------------------------%
%
MGLEVEL= 2
MGCYCLE= W_CYCLE
MG_PRE_SMOOTH= ( 1, 2, 3, 3 )
MG_POST_SMOOTH= ( 0, 0, 0, 0 )
MG_CORRECTION_SMOOTH= ( 0, 0, 0, 0 )
MG_DAMP_RESTRICTION= 1.0
MG_DAMP_PROLONGATION= 1.0

% -------------------- FLOW NUMERICAL METHOD DEFINITION -----------------------%
%
CONV_NUM_METHOD_FLOW= JST
VENKAT_LIMITER_COEFF= 0.001
JST_SENSOR_COEFF= ( 0.0, 0.01 )
TIME_DISCRE_FLOW= EULER_IMPLICIT

% ------------------------ GRID DEFORMATION PARAMETERS ------------------------%
%
DV_KIND= HICKS_HENNE
DV_MARKER= ( airfoil )
DV_PARAM= ( 1, 0.5 )
DV_VALUE= 0.01

% --------------------------- CONVERGENCE PARAMETERS --------------------------%
%
CONV_RESIDUAL_MINVAL= -15
CONV_STARTITER= 10
CONV_CAUCHY_ELEMS= 100
CONV_CAUCHY_EPS= 1E-6

% ------------------------- INPUT/OUTPUT INFORMATION --------------------------%
%
MESH_FILENAME= mesh_NACA0012_inv.su2
MESH_FORMAT= SU2
MESH_OUT_FILENAME= mesh_out.su2
SOLUTION_FILENAME= solution_flow.dat
SOLUTION_ADJ_FILENAME= solution_adj.dat
TABULAR_FORMAT= CSV
CONV_FILENAME= history
RESTART_FILENAME= restart_flow.dat
RESTART_ADJ_FILENAME= restart_adj.dat
VOLUME_FILENAME= flow
VOLUME_ADJ_FILENAME= adjoint
GRAD_OBJFUNC_FILENAME= of_grad.dat
SURFACE_FILENAME= surface_flow
SURFACE_ADJ_FILENAME= surface_adjoint
OUTPUT_WRT_FREQ= 250
SCREEN_OUTPUT = (INNER_ITER, RMS_ADJ_PRESSURE, RMS_ADJ_VELOCITY-X, SENS_PRESS, SENS_AOA)
OUTPUT_FILES=(RESTART_ASCII)

% --------------------- OPTIMAL SHAPE DESIGN DEFINITION -----------------------%
%
DEFINITION_DV= ( 30, 1.0 | airfoil | 0, 0.05 ); ( 30, 1.0 | airfoil | 0, 0.10 ); ( 30, 1.0 | airfoil | 0, 0.15 ); ( 30, 1.0 | airfoil | 0, 0.20 ); ( 30, 1.0 | airfoil | 0, 0.25 ); ( 30, 1.0 | airfoil | 0, 0.30 ); ( 30, 1.0 | airfoil | 0, 0.35 ); ( 30, 1.0 | airfoil | 0, 0.40 ); ( 30, 1.0 | airfoil | 0, 0.45 ); ( 30, 1.0 | airfoil | 0, 0.50 ); ( 30, 1.0 | airfoil | 0, 0.55 ); ( 30, 1.0 | airfoil | 
