%%%%%%%%%%%%%%%%%%%%%%%%%%%%%%%%%%%%%%%%%%%%%%%%%%%%%%%%%%%%%%%%%%%%%%%%%%%%%%%%
%                                                                              %
% SU2 configuration file                                                       %
% Case description: Steady incompressible laminar flow around heated cylinders %
%                                                                              %
%%%%%%%%%%%%%%%%%%%%%%%%%%%%%%%%%%%%%%%%%%%%%%%%%%%%%%%%%%%%%%%%%%%%%%%%%%%%%%%%

% ------------- DIRECT, ADJOINT, AND LINEARIZED PROBLEM DEFINITION ------------%
%
SOLVER= INC_NAVIER_STOKES
KIND_TURB_MODEL= NONE
RESTART_SOL= NO

% Gradient for this test case from direct differentiation (to confirm adjoints results, if desired): -0.716778
OBJECTIVE_FUNCTION= TOTAL_HEATFLUX
OBJECTIVE_WEIGHT = 1.0
READ_BINARY_RESTART = YES
HISTORY_OUTPUT=(ITER, RMS_RES, HEAT )

% -------------------- BOUNDARY CONDITION DEFINITION --------------------------%
%
MARKER_FAR= ( farfield )
MARKER_PLOTTING= (cylinder_outer1, cylinder_outer2, cylinder_outer3)
MARKER_MONITORING= (cylinder_outer1, cylinder_outer2, cylinder_outer3)

% ---------------- INCOMPRESSIBLE FLOW CONDITION DEFINITION -------------------%
%
INC_DENSITY_MODEL= VARIABLE
INC_ENERGY_EQUATION = YES
INC_DENSITY_INIT= 0.000210322
INC_VELOCITY_INIT= ( 3.40297, 0.0, 0.0 )
INC_TEMPERATURE_INIT= 288.15
INC_NONDIM= DIMENSIONAL

% ---- IDEAL GAS, POLYTROPIC, VAN DER WAALS AND PENG ROBINSON CONSTANTS -------%
%
FLUID_MODEL= INC_IDEAL_GAS
SPECIFIC_HEAT_CP= 1004.703
MOLECULAR_WEIGHT= 28.96

% --------------------------- VISCOSITY MODEL ---------------------------------%
%
VISCOSITY_MODEL= CONSTANT_VISCOSITY
MU_CONSTANT= 1.7893e-05
MU_REF= 1.716E-5
MU_T_REF= 273.15
SUTHERLAND_CONSTANT= 110.4

% --------------------------- THERMAL CONDUCTIVITY MODEL ----------------------%
%
CONDUCTIVITY_MODEL= CONSTANT_PRANDTL
THERMAL_CONDUCTIVITY_CONSTANT= 0.0257
PRANDTL_LAM= 0.72
PRANDTL_TURB= 0.90

% ------------- COMMON PARAMETERS DEFINING THE NUMERICAL METHOD ---------------%
%
NUM_METHOD_GRAD= GREEN_GAUSS
CFL_NUMBER= 10.0
CFL_ADAPT= NO
CFL_ADAPT_PARAM= ( 1.5, 0.5, 10.0, 10000.0 )
RK_ALPHA_COEFF= ( 0.66667, 0.66667, 1.000000 )

% ------------------------ LINEAR SOLVER DEFINITION ---------------------------%
%
LINEAR_SOLVER= FGMRES
LINEAR_SOLVER_PREC= ILU
LINEAR_SOLVER_ILU_FILL_IN= 0
LINEAR_SOLVER_ERROR= 1E-15
LINEAR_SOLVER_ITER= 5

% -------------------- FLOW NUMERICAL METHOD DEFINITION -----------------------%
%
CONV_NUM_METHOD_FLOW= FDS
MUSCL_FLOW= YES
SLOPE_LIMITER_FLOW= NONE
TIME_DISCRE_FLOW= EULER_IMPLICIT

% --------------------------- CONVERGENCE PARAMETERS --------------------------%
%
CONV_RESIDUAL_MINVAL= -19
CONV_STARTITER= 10
CONV_CAUCHY_ELEMS= 100
CONV_CAUCHY_EPS= 1E-6

% ------------------------- INPUT/OUTPUT INFORMATION --------------------------%
%
SOLUTION_FILENAME= solution_flow.dat
SOLUTION_ADJ_FILENAME= solution_adj.dat
TABULAR_FORMAT= TECPLOT
CONV_FILENAME= history
BREAKDOWN_FILENAME= forces_breakdown.dat
RESTART_FILENAME= restart_flow.dat
RESTART_ADJ_FILENAME= restart_adj.dat
VOLUME_FILENAME= flow
VOLUME_ADJ_FILENAME= adjoint
VALUE_OBJFUNC_FILENAME= of_eval.dat
GRAD_OBJFUNC_FILENAME= of_grad.dat
SURFACE_FILENAME= surface_flow
SURFACE_ADJ_FILENAME= surface_adjoint

% ------------------------ GRID DEFORMATION PARAMETERS ------------------------%
%
DEFORM_LINEAR_SOLVER= FGMRES
DEFORM_LINEAR_SOLVER_ITER= 200
DEFORM_NONLINEAR_ITER= 1
DEFORM_CONSOLE_OUTPUT= YES
DEFORM_STIFFNESS_TYPE= INVERSE_VOLUME