%%%%%%%%%%%%%%%%%%%%%%%%%%%%%%%%%%%%%%%%%%%%%%%%%%%%%%%%%%%%%%%%%%%%%%%%%%%%%%%%
%                                                                              %
% SU2 configuration file                                                       %
% Case description: Unit Cell flow around pin array (fluid)                    %
% Author: T. Kattmann                                                          %
% Date: 2022.02.10                                                             %
% File Version 8.0.0 "Harrier"                                                 %
%                                                                              %
%%%%%%%%%%%%%%%%%%%%%%%%%%%%%%%%%%%%%%%%%%%%%%%%%%%%%%%%%%%%%%%%%%%%%%%%%%%%%%%%
%
% ------------- DIRECT, ADJOINT, AND LINEARIZED PROBLEM DEFINITION ------------%
%
SOLVER= INC_RANS
%
KIND_TURB_MODEL= SST
%
%__OF_AVGT__OBJECTIVE_FUNCTION= AVG_TEMPERATURE
%__OF_AVGT__OBJECTIVE_WEIGHT= 0.0
OBJECTIVE_FUNCTION= SURFACE_PRESSURE_DROP
OBJECTIVE_WEIGHT= 1.0
%__OF_MDOT__OBJECTIVE_FUNCTION= SURFACE_MASSFLOW
%__OF_MDOT__OBJECTIVE_WEIGHT= 1.0
%__OF_DRAG__OBJECTIVE_FUNCTION= DRAG
%__OF_DRAG__OBJECTIVE_WEIGHT= 1.0
%
% ---------------- INCOMPRESSIBLE FLOW CONDITION DEFINITION -------------------%
%
INC_DENSITY_MODEL= CONSTANT
INC_DENSITY_INIT= 1045.0
INC_VELOCITY_INIT= ( 0.1, 0.0, 0.0 )
%
INC_ENERGY_EQUATION = YES
INC_TEMPERATURE_INIT= 338.0
INC_NONDIM= DIMENSIONAL
SPECIFIC_HEAT_CP= 3540.0
%
FREESTREAM_TURBULENCEINTENSITY= 0.05
FREESTREAM_TURB2LAMVISCRATIO= 10.0
%
% --------------------------- VISCOSITY MODEL ---------------------------------%
%
VISCOSITY_MODEL= CONSTANT_VISCOSITY
MU_CONSTANT= 0.001385
%
% --------------------------- THERMAL CONDUCTIVITY MODEL ----------------------%
%
% Pr_lam = mu_lam [Pa*s] * c_p [J/(kg*K)] / lambda[W/(m*K)]
%        = 1.385e-3      * 3540           / 0.42
%        = 11.7 
CONDUCTIVITY_MODEL= CONSTANT_PRANDTL
PRANDTL_LAM= 11.7
%
TURBULENT_CONDUCTIVITY_MODEL= CONSTANT_PRANDTL_TURB
PRANDTL_TURB= 0.90
%
% --------------------- STREAMWISE PERIODICITY DEFINITION ---------------------%
%
KIND_STREAMWISE_PERIODIC= MASSFLOW
STREAMWISE_PERIODIC_PRESSURE_DROP= 208.023676
STREAMWISE_PERIODIC_MASSFLOW= 0.85
INC_OUTLET_DAMPING= 0.1
%
STREAMWISE_PERIODIC_TEMPERATURE= NO
%
% inner pin length 0.00376991 m = (0.00322-0.00262)*2*pi
% with 5e5 W/m that is Q = -1884.95559215
STREAMWISE_PERIODIC_OUTLET_HEAT= -1884.95559215
%
% -------------------- BOUNDARY CONDITION DEFINITION --------------------------%
%
MARKER_SYM= ( fluid_symmetry_lower, fluid_symmetry_upper )
%
MARKER_PERIODIC= ( fluid_inlet, fluid_outlet, 0.0,0.0,0.0, 0.0,0.0,0.0, 0.0111544,0.0,0.0 )
%
% Alternative to periodic simulation with velocity inlet and pressure outlet
%MARKER_HEATFLUX= ( fluid_pin1_interface, 5e5, \
%                   fluid_pin2_interface, 5e5, \
%                   fluid_pin3_interface, 5e5 )
%
% Alternative options for non-periodic flow
%INC_INLET_TYPE= VELOCITY_INLET
%MARKER_INLET= ( fluid_inlet, 338.0, 0.75, 1.0, 0.0, 0.0 )
% Test vals to hinder outlet backflow
%MARKER_INLET= ( fluid_inlet, 338.0, 0.3, 1.0, 0.0, 0.0 )
%
%INC_OUTLET_TYPE= PRESSURE_OUTLET
%MARKER_OUTLET= ( fluid_outlet, 0.0 )
%
% ------------------------ SURFACES IDENTIFICATION ----------------------------%
%
MARKER_MONITORING= fluid_pin2_interface
%
%__DIRECT__MARKER_ANALYZE= fluid_outlet, fluid_inlet, fluid_pin2_interface
%__OF_AVGT__MARKER_ANALYZE= fluid_pin2_interface
%__OF_MDOT__MARKER_ANALYZE= fluid_inlet
MARKER_ANALYZE= fluid_outlet, fluid_inlet
MARKER_ANALYZE_AVERAGE= AREA
%
% ------------- COMMON PARAMETERS DEFINING THE NUMERICAL METHOD ---------------%
%
%ITER= 3500
NUM_METHOD_GRAD= GREEN_GAUSS
%__DIRECT__CFL_NUMBER= 1e3
% Optimal CFL numbers differ from OF to OF
%__OF_AVGT__CFL_NUMBER= 1e3
%__OF_DRAG__CFL_NUMBER= 1e2
CFL_NUMBER= 1e2
%__OF_MDOT__CFL_NUMBER= 1e2
%
% ------------------------ LINEAR SOLVER DEFINITION ---------------------------%
%
LINEAR_SOLVER= FGMRES
LINEAR_SOLVER_PREC= ILU
LINEAR_SOLVER_ERROR= 1e-15
%__DIRECT__LINEAR_SOLVER_ITER= 10
%__OF_AVGT__LINEAR_SOLVER_ITER= 10
%__OF_DRAG__LINEAR_SOLVER_ITER= 15
LINEAR_SOLVER_ITER= 15
%__OF_MDOT__LINEAR_SOLVER_ITER= 15
%
% -------------------- FLOW NUMERICAL METHOD DEFINITION -----------------------%
%
CONV_NUM_METHOD_FLOW= FDS
MUSCL_FLOW= YES
SLOPE_LIMITER_FLOW= NONE
TIME_DISCRE_FLOW= EULER_IMPLICIT
%
% -------------------- TURBULENT NUMERICAL METHOD DEFINITION ------------------%
%
CONV_NUM_METHOD_TURB= SCALAR_UPWIND
MUSCL_TURB= NO
SLOPE_LIMITER_TURB= NONE
TIME_DISCRE_TURB= EULER_IMPLICIT
%
% --------------------------- CONVERGENCE PARAMETERS --------------------------%
%
% Note: SURFACE_MASSFLOW does only converge to ~1e-7 here
CONV_FIELD= SURFACE_STATIC_TEMPERATURE, DRAG, SURFACE_PRESSURE_DROP
CONV_CAUCHY_EPS= 1e-15
CONV_CAUCHY_ELEMS= 100
CONV_STARTITER= 10
