%%%%%%%%%%%%%%%%%%%%%%%%%%%%%%%%%%%%%%%%%%%%%%%%%%%%%%%%%%%%%%%%%%%%%%%%%%%%%%%%
%                                                                              %
% Stanford University unstructured (SU2) configuration file                    %
% Case description: Steady incompressible laminar flow around a cylinder       %
% Author: Francisco Palacios						                                       %
% Institution: Stanford University                                             %
% Date: 2012.03.14                                                             %
% File Version 1.1.1 August 11th, 2012                                         %
%                                                                              %
%%%%%%%%%%%%%%%%%%%%%%%%%%%%%%%%%%%%%%%%%%%%%%%%%%%%%%%%%%%%%%%%%%%%%%%%%%%%%%%%

% ------------- DIRECT, ADJOINT, AND LINEARIZED PROBLEM DEFINITION ------------%
%
% Physical governing equations (EULER, NAVIER_STOKES, NS_PLASMA)
%                               
PHYSICAL_PROBLEM= NAVIER_STOKES
%
% Incompressible flow using artificial compressibility (NO, YES)
INCOMPRESSIBLE_FORMULATION= YES
%
% If Navier-Stokes, kind of turbulent model (NONE, SA)
KIND_TURB_MODEL= NONE
%
% Mathematical problem (DIRECT, ADJOINT, LINEARIZED)
MATH_PROBLEM= ADJOINT
%
% Restart solution (NO, YES)
RESTART_SOL= YES

% -------------------- INCOMPRESSIBLE FREE-STREAM DEFINITION ------------------%
%
% Free-stream density (1.2886 Kg/m^3 (air), 998.2 Kg/m^3 (water))
FREESTREAM_DENSITY= 998.2
%
% Free-stream velocity (m/s)
FREESTREAM_VELOCITY= ( 0.000008, 0.00, 0.00 )
%
% Free-stream viscosity (1.853E-5 Ns/m^2 (air), 0.798E-3 Ns/m^2 (water))
FREESTREAM_VISCOSITY= 0.798E-3

% -------------- COMPRESSIBLE AND INCOMPRESSIBLE FLUID CONSTANTS --------------%
%
% Value of the Bulk Modulus (1.01E5 N/m^2 (air), 2.2E9 N/m^2 (water),
%                            only for incompressible flows) 
BULK_MODULUS= 2.2E9
%
% Artifical compressibility factor (1.0 by default,
%                                   only for incompressible flows) 
ARTCOMP_FACTOR= 5.0

% ---------------------- REFERENCE VALUE DEFINITION ---------------------------%
%
% Reference origin for moment computation
REF_ORIGIN_MOMENT= ( 0.25, 0.00, 0.00 )
%
% Reference length for pitching, rolling, and yawing non-dimensional moment
REF_LENGTH_MOMENT= 1.0
%
% Reference area for force coefficients (0 implies automatic calculation)
REF_AREA= 1.0

% ------------------------- UNSTEADY SIMULATION -------------------------------%
%
% Unsteady simulation (NO, TIME_STEPPING, DUAL_TIME_STEPPING-1ST_ORDER, 
%                      DUAL_TIME_STEPPING-2ND_ORDER)
UNSTEADY_SIMULATION= NO
%
% Time Step for dual time stepping simulations (s)
UNST_TIMESTEP= 0.0
%
% Total Physical Time for dual time stepping simulations (s)
UNST_TIME= 50.0
%
% Unsteady Courant-Friedrichs-Lewy number of the finest grid
UNST_CFL_NUMBER= 0.0
%
% Number of internal iterations (dual time method)
UNST_INT_ITER= 200

% -------------------- BOUNDARY CONDITION DEFINITION --------------------------%
%
% Navier-Stokes wall boundary marker(s) (NONE = no marker)
MARKER_HEATFLUX= ( cylinder, 0.0 )
%
% Farfield boundary marker(s) (NONE = no marker)
MARKER_FAR= ( farfield )
%
% Marker(s) of the surface to be plotted or designed
MARKER_PLOTTING= ( cylinder )
%
% Marker(s) of the surface where the functional (Cd, Cl, etc.) will be evaluated
MARKER_MONITORING= ( cylinder )

% ------------- COMMON PARAMETERS DEFINING THE NUMERICAL METHOD ---------------%
%
% Numerical method for spatial gradients (GREEN_GAUSS, WEIGHTED_LEAST_SQUARES)
NUM_METHOD_GRAD= WEIGHTED_LEAST_SQUARES
%
% Courant-Friedrichs-Lewy condition of the finest grid
CFL_NUMBER= 5.0
%
% CFL ramp (factor, number of iterations, CFL limit)
CFL_RAMP= ( 1.1, 100, 20.0 )
%
% Runge-Kutta alpha coefficients
RK_ALPHA_COEFF= ( 0.66667, 0.66667, 1.000000 )
%
% Runge-Kutta beta coefficients
RK_BETA_COEFF= ( 1.00000, 0.00000, 0.00000 )
%
% Number of total iterations
EXT_ITER= 30

% -------------------------- MULTIGRID PARAMETERS -----------------------------%
%
% Multi-Grid Levels (0 = no multi-grid)
MGLEVEL= 2
%
% Multi-Grid Cycle (0 = V cycle, 1 = W Cycle)
MGCYCLE= 0
%
% CFL reduction factor on the coarse levels
MG_CFL_REDUCTION= 0.75
%
% Maximum number of children in the agglomeration stage
MAX_CHILDREN= 250
%
% Maximum length of an agglomerated element (relative to the domain)
MAX_DIMENSION= 0.1
%
% Multigrid pre-smoothing level
MG_PRE_SMOOTH= ( 1, 2, 3, 3 )
%
% Multigrid post-smoothing level
MG_POST_SMOOTH= ( 0, 0, 0, 0 )
%
% Jacobi implicit smoothing of the correction
MG_CORRECTION_SMOOTH= ( 0, 0, 0, 0 )
%
% Damping factor for the residual restriction
MG_DAMP_RESTRICTION= 0.5
%
% Damping factor for the correction prolongation
MG_DAMP_PROLONGATION= 0.5

% -------------------- FLOW NUMERICAL METHOD DEFINITION -----------------------%
%
% Convective numerical method (JST, LAX-FRIEDRICH, ROE-1ST_ORDER, 
%                              ROE-2ND_ORDER, AUSM-1ST_ORDER, AUSM-2ND_ORDER,
%                              HLLC-1ST_ORDER, HLLC-2ND_ORDER)
CONV_NUM_METHOD_FLOW= ROE-2ND_ORDER
%
% Slope limiter (NONE, VENKATAKRISHNAN, BARTH)
SLOPE_LIMITER_FLOW= NONE
%
% 1st, 2nd and 4th order artificial dissipation coefficients
AD_COEFF_FLOW= ( 0.15, 0.5, 0.02 )
%
% Viscous numerical method (AVG_GRAD, AVG_GRAD_CORRECTED, GALERKIN)
VISC_NUM_METHOD_FLOW= AVG_GRAD
%
% Source term numerical method (PIECEWISE_CONSTANT)
SOUR_NUM_METHOD_FLOW= PIECEWISE_CONSTANT
%
% Time discretization (RUNGE-KUTTA_EXPLICIT, EULER_IMPLICIT, EULER_EXPLICIT)
TIME_DISCRE_FLOW= EULER_IMPLICIT

% ---------------- ADJOINT-FLOW NUMERICAL METHOD DEFINITION -------------------%
%
% Adjoint type (CONTINUOUS, DISCRETE)
ADJOINT_TYPE= CONTINUOUS
%
% Objective function type (FORCE, NON_FORCE)
ADJ_OBJFUNC_TYPE= FORCE
%
% Adjoint problem boundary condition (DRAG, LIFT, SIDEFORCE, MOMENT_X,
%                                     MOMENT_Y, MOMENT_Z, EFFICIENCY, 
%                                     EQUIVALENT_AREA, NEARFIELD_PRESSURE,
%                                     FORCE_X, FORCE_Y, FORCE_Z, THRUST, TORQUE)
ADJ_OBJFUNC= DRAG
%
% Print sensitivities to screen on exit
SHOW_ADJ_SENS= NO
%
% Convective numerical method (JST, LAX-FRIEDRICH, ROE-1ST_ORDER, 
%                              ROE-2ND_ORDER)
CONV_NUM_METHOD_ADJ= ROE-2ND_ORDER
%
% Coefficient for the limiter
LIMITER_COEFF= 1.0
%
% Slope limiter (NONE, VENKATAKRISHNAN, BARTH)
SLOPE_LIMITER_ADJFLOW= NONE
%
% 1st, 2nd, and 4th order artificial dissipation coefficients
AD_COEFF_ADJ= ( 0.15, 0.5, 0.02 )
%
% Reduction factor of the CFL coefficient in the adjoint problem
ADJ_CFL_REDUCTION= 0.5
%
% Viscous numerical method (AVG_GRAD, AVG_GRAD_CORRECTED, GALERKIN)
VISC_NUM_METHOD_ADJ= AVG_GRAD
%
% Source term numerical method (PIECEWISE_CONSTANT)
SOUR_NUM_METHOD_ADJ= PIECEWISE_CONSTANT
%
% Time discretization (RUNGE-KUTTA_EXPLICIT, EULER_IMPLICIT)
TIME_DISCRE_ADJ= EULER_IMPLICIT
%
% Sensitivity smoothing (NONE, SOBOLEV, BIGRID)
SENS_SMOOTHING= NONE
%
% Adjoint frozen viscosity (NO, YES)
FROZEN_VISC= YES

% --------------------------- PARTITIONING STRATEGY ---------------------------%
%
% Number of partitions of the domain
NUMBER_PART= 0
%
% Write a paraview file for each partition (NO, YES)
VISUALIZE_PART= NO

% ------------------------ GRID DEFORMATION PARAMETERS ------------------------%
%
% Kind of deformation (NO_DEFORMATION, HICKS_HENNE, PARABOLIC, NACA_4DIGITS, 
%                      DISPLACEMENT, ROTATION, FFD_CONTROL_POINT, 
%                      FFD_DIHEDRAL_ANGLE, FFD_TWIST_ANGLE, 
%                      FFD_ROTATION, FFD_CAMBER, FFD_THICKNESS, FFD_VOLUME)
DV_KIND= HICKS_HENNE
%
% Marker of the surface in which we are going apply the shape deformation
DV_MARKER= ( cylinder )
%
% Parameters of the shape deformation 
% 	- HICKS_HENNE ( Lower Surface (0)/Upper Surface (1)/Only one Surface (2), x_Loc )
% 	- NACA_4DIGITS ( 1st digit, 2nd digit, 3rd and 4th digit )
% 	- PARABOLIC ( Center, Thickness )
% 	- DISPLACEMENT ( x_Disp, y_Disp, z_Disp )
% 	- ROTATION ( x_Orig, y_Orig, z_Orig, x_End, y_End, z_End )
% 	- OBSTACLE ( Center, Bump size )
% 	- FFD_CONTROL_POINT ( Chunk ID, i_Ind, j_Ind, k_Ind, x_Disp, y_Disp, z_Disp )
% 	- FFD_DIHEDRAL_ANGLE ( Chunk ID, x_Orig, y_Orig, z_Orig, x_End, y_End, z_End )
% 	- FFD_TWIST_ANGLE ( Chunk ID, x_Orig, y_Orig, z_Orig, x_End, y_End, z_End )
% 	- FFD_ROTATION ( Chunk ID, x_Orig, y_Orig, z_Orig, x_End, y_End, z_End )
% 	- FFD_CAMBER ( Chunk ID, i_Ind, j_Ind )
% 	- FFD_THICKNESS ( Chunk ID, i_Ind, j_Ind )
% 	- FFD_VOLUME ( Chunk ID, i_Ind, j_Ind )
DV_PARAM= ( 1, 0.5 )
%
% Old value of the deformation for incremental deformations
DV_VALUE_OLD= 0.0
%
% New value of the shape deformation
DV_VALUE_NEW= 0.05
%
% Grid deformation technique (SPRING, FEA)
GRID_DEFORM_METHOD= FEA
%
% Maximum error in the grid deformation
GRID_DEFORM_ERROR= 1E-8
%
% Hold the grid fixed in a region (NO, YES)
HOLD_GRID_FIXED= NO
%
% Coordinates of the box where the grid will be deformed (Xmin, Ymin, Zmin, Xmax, Ymax, Zmax)
HOLD_GRID_FIXED_COORD= ( -0.5, -0.49, 0.0, 2.5, 0.49, 0.0 )
%
% Visualize the deformation (NO, YES)
VISUALIZE_DEFORMATION= NO

% --------------------------- CONVERGENCE PARAMETERS --------------------------%
%
% Convergence criteria (CAUCHY, RESIDUAL)
%
CONV_CRITERIA= RESIDUAL
%
% Residual reduction (order of magnitude with respect to the initial value)
RESIDUAL_REDUCTION= 8
%
% Min value of the residual (log10 of the residual)
RESIDUAL_MINVAL= -10
%
% Start convergence criteria at iteration number
STARTCONV_ITER= 10
%
% Number of elements to apply the criteria
CAUCHY_ELEMS= 100
%
% Epsilon to control the series convergence
CAUCHY_EPS= 1E-6
%
% Function to apply the criteria (LIFT, DRAG, NEARFIELD_PRESS, SENS_GEOMETRY, 
% 	      	    		 SENS_MACH, DELTA_LIFT, DELTA_DRAG)
CAUCHY_FUNC_FLOW= DRAG
%
% Epsilon for full multigrid method evaluation
FULLMG_CAUCHY_EPS= 1E-4

% ------------------------- INPUT/OUTPUT INFORMATION --------------------------%
% Mesh input file
MESH_FILENAME= mesh_cylinder_lam.su2
%
% Mesh input file format (SU2, CGNS, NETCDF_ASCII)
MESH_FORMAT= SU2
%
% Convert a CGNS mesh to SU2 format (YES, NO)
CGNS_TO_SU2= NO
%
% Mesh output file
MESH_OUT_FILENAME= mesh_out.su2
%
% Restart flow input file
SOLUTION_FLOW_FILENAME= solution_flow.dat
%
% Restart adjoint input file
SOLUTION_ADJ_FILENAME= solution_adj.dat
%
% Output file format (PARAVIEW, TECPLOT)
OUTPUT_FORMAT= TECPLOT
%
% Output file convergence history (w/o extension) 
CONV_FILENAME= history
%
% Output file restart flow
RESTART_FLOW_FILENAME= restart_flow.dat
%
% Output file restart adjoint
RESTART_ADJ_FILENAME= restart_adj.dat
%
% Output file flow (w/o extension) variables
VOLUME_FLOW_FILENAME= flow
%
% Output file adjoint (w/o extension) variables
VOLUME_ADJ_FILENAME= adjoint
%
% Output Objective function gradient (using continuous adjoint)
GRAD_OBJFUNC_FILENAME= of_grad.dat
%
% Output file surface flow coefficient (w/o extension)
SURFACE_FLOW_FILENAME= surface_flow
%
% Output file surface adjoint coefficient (w/o extension)
SURFACE_ADJ_FILENAME= surface_adjoint
%
% Writing solution file frequency
WRT_SOL_FREQ= 100
%
% Writing convergence history frequency
WRT_CON_FREQ= 1

% --------------------- OPTIMAL SHAPE DESIGN DEFINITION -----------------------%
% Objective function (DRAG, LIFT, SIDEFORCE, PRESSURE, MOMENT_X, MOMENT_Y, 
%                     MOMENT_Z, EFFICIENCY, CHARGE, SONIC_BOOM)
OBJFUNC= DRAG
%
% Scale objective function.
OBJFUNC_SCALE= 0.001
%
% Inequality constraints list separated by comma (DRAG, LIFT, SIDEFORCE, 
%                                                 PRESSURE, MOMENT_X, MOMENT_Y, 
%                     	                          MOMENT_Z, EFFICIENCY, SONIC_BOOM)
CONST_IEQ= LIFT, MOMENT_Z
%
% Scale inequality constraints (separated by comma)
CONST_IEQ_SCALE= 0.001, 0.001
%
% Min value inequality constraints list (NONE, LESS, GREATER)
CONST_IEQ_SIGN= GREATER, GREATER
%
% Max value inequality constraints list (separated by comma)
CONST_IEQ_VALUE= 0.328188, 0.034068
%
% Equality constraints list separated by comma (DRAG, LIFT, SIDEFORCE, 
%                                                 PRESSURE, MOMENT_X, MOMENT_Y, 
%                     	                          MOMENT_Z, EFFICIENCY, SONIC_BOOM)
CONST_EQ= NONE
%
% Scale equality constraints (separated by comma)
CONST_EQ_SCALE= 0.0
%
% Value equality constraints list (separated by comma)
CONST_EQ_VALUE= 0.0
%
% List of design variables (Design variables are separated by semicolons)
% From 1 to 99, Geometrycal design variables.
%  - HICKS_HENNE ( 1, Scale | Mark. List | Lower(0)/Upper(1) side, x_Loc )
%  - NACA_4DIGITS ( 4, Scale | Mark. List |  1st digit, 2nd digit, 3rd and 4th digit )
%  - ROTATION ( 6, Scale | Mark. List | x_Axis, y_Axis, z_Axis, x_Turn, y_Turn, z_Turn )
% From 100 to 199, Flow solver design variables.
%  - MACH_NUMBER ( 101, Scale | Markers List )
%  - AOA ( 102, Scale | Markers List )
DEFINITION_DV= ( 1, 1.0 | cylinder | 0, 0.961538461538 ); ( 1, 1.0 | cylinder | 0, 0.923076923077 ); ( 1, 1.0 | cylinder | 0, 0.884615384615 ); ( 1, 1.0 | cylinder | 0, 0.846153846154 ); ( 1, 1.0 | cylinder | 0, 0.807692307692 ); ( 1, 1.0 | cylinder | 0, 0.769230769231 ); ( 1, 1.0 | cylinder | 0, 0.730769230769 ); ( 1, 1.0 | cylinder | 0, 0.692307692308 ); ( 1, 1.0 | cylinder | 0, 0.653846153846 )
