%%%%%%%%%%%%%%%%%%%%%%%%%%%%%%%%%%%%%%%%%%%%%%%%%%%%%%%%%%%%%%%%%%%%%%%%%%%%%%%%
%                                                                              %
% SU2 configuration file                                                       %
% Case description: Transonic ORC nozzle         			       %
% Author: S. Vitale                                                            %
% Institution: Delft University of Technology                                  %
% Date: 2017.03.01                                                             %
% File Version 5.0.0 "Cardinal"                                                %
%                                                                              %
%%%%%%%%%%%%%%%%%%%%%%%%%%%%%%%%%%%%%%%%%%%%%%%%%%%%%%%%%%%%%%%%%%%%%%%%%%%%%%%%
%
%
% ------------- DIRECT, ADJOINT, AND LINEARIZED PROBLEM DEFINITION ------------%
%
% Physical governing equations (EULER, NAVIER_STOKES,
%                               WAVE_EQUATION, HEAT_EQUATION, LINEAR_ELASTICITY,
%                               POISSON_EQUATION)                         
SOLVER= RANS
%
% Specify turbulent model (NONE, SA, SST)
KIND_TURB_MODEL= SST
%
% Mathematical problem (DIRECT, ADJOINT, LINEARIZED)
MATH_PROBLEM= DISCRETE_ADJOINT
%
% Restart solution (NO, YES)
RESTART_SOL= NO
%
% number of zones (needed for python scripts)
NZONES= 1
%
SINGLEZONE_DRIVER=NO
%
% -------------------- COMPRESSIBLE FREE-STREAM DEFINITION --------------------%
%
% Mach number (non-dimensional, based on the free-stream values)
MACH_NUMBER= 0.1
%
% Angle of attack (degrees, only for compressible flows)
AOA= 70.0
%
% Free-stream pressure (101325.0 N/m^2 by default, only Euler flows)  
FREESTREAM_PRESSURE= 13.0E+5
%
% Free-stream temperature (273.15 K by default)
FREESTREAM_TEMPERATURE=  592.295
%
% Free-stream temperature (1.2886 Kg/m3 by default)
FREESTREAM_DENSITY= 1.7418
%
% Free-stream option to choose if you want to use Density (DENSITY_FS) or Temperature (TEMPERATURE_FS) to initialize the solution
FREESTREAM_OPTION= TEMPERATURE_FS
%
% Free-stream Turbulence Intensity
FREESTREAM_TURBULENCEINTENSITY = 0.03
%
% Free-stream Turbulent to Laminar viscosity ratio
FREESTREAM_TURB2LAMVISCRATIO = 100.0
%
%Init option to choose between Reynolds (default) or thermodynamics quantities for initializing the solution (REYNOLDS, TD_CONDITIONS)
INIT_OPTION= TD_CONDITIONS
%
% ---------------------- REFERENCE VALUE DEFINITION ---------------------------%
%
% Reference origin for moment computation
REF_ORIGIN_MOMENT_X = 0.00
REF_ORIGIN_MOMENT_Y = 0.00
REF_ORIGIN_MOMENT_Z = 0.00
%
% Reference length for pitching, rolling, and yawing non-dimensional moment
REF_LENGTH= 1.0
%
% Reference area for force coefficients (0 implies automatic calculation)
REF_AREA= 1.0
%
%
% Flow non-dimensionalization (DIMENSIONAL, FREESTREAM_PRESS_EQ_ONE,
%                              FREESTREAM_VEL_EQ_MACH, FREESTREAM_VEL_EQ_ONE)
REF_DIMENSIONALIZATION= FREESTREAM_PRESS_EQ_ONE
%
%
% ------------------------------ EQUATION OF STATE ----------------------------%
%
% Different gas model (STANDARD_AIR, IDEAL_GAS, VW_GAS, PR_GAS)
FLUID_MODEL= PR_GAS
%
% Ratio of specific heats (1.4 default and the value is hardcoded
%                          for the model STANDARD_AIR)
GAMMA_VALUE= 1.0165
%
% Specific gas constant (287.058 J/kg*K default and this value is hardcoded 
%                        for the model STANDARD_AIR)
GAS_CONSTANT= 35.23
%
% Critical Temperature (273.15 K by default)
CRITICAL_TEMPERATURE= 564.1
%
% Critical Pressure (101325.0 N/m^2 by default)
CRITICAL_PRESSURE= 1415000.0
%
% Acentri factor (0.035 (air))
ACENTRIC_FACTOR= 0.529
%
%
% --------------------------- VISCOSITY MODEL ---------------------------------%
%
% Viscosity model (SUTHERLAND, CONSTANT_VISCOSITY).
VISCOSITY_MODEL= CONSTANT_VISCOSITY
%
% Molecular Viscosity that would be constant (1.716E-5 by default)
MU_CONSTANT= 1.3764E-5
%
% Sutherland Viscosity Ref (1.716E-5 default value for AIR SI)
MU_REF= 1.716E-5
%
% Sutherland Temperature Ref (273.15 K default value for AIR SI)
MU_T_REF= 273.15
%
% Sutherland constant (110.4 default value for AIR SI)
SUTHERLAND_CONSTANT= 110.4
%
%
% --------------------------- THERMAL CONDUCTIVITY MODEL ----------------------%
%
% Conductivity model (CONSTANT_CONDUCTIVITY, CONSTANT_PRANDTL).
CONDUCTIVITY_MODEL= CONSTANT_CONDUCTIVITY
%
% Molecular Thermal Conductivity that would be constant (0.0257 by default)
KT_CONSTANT= 0.047280
%
%
% -------------------- BOUNDARY CONDITION DEFINITION --------------------------%
%
% Navier-Stokes wall boundary marker(s) (NONE = no marker)
MARKER_HEATFLUX= (airfoil, 0.0)
%
% Periodic boundary marker(s) (NONE = no marker)
% Format: ( periodic marker, donor marker, rot_cen_x, rot_cen_y, rot_cen_z, rot_angle_x-axis, rot_angle_y-axis, rot_angle_z-axis, translation_x, translation_y, translation_z)
MARKER_PERIODIC= ( periodic_1, periodic_2, 0.0, 0.0, 0.0, 0.0, 0.0, 0.0, 0.0, 0.05749995, 0.0 )
%
%
%-------- INFLOW/OUTFLOW BOUNDARY CONDITION SPECIFIC FOR TURBOMACHINERY --------%
%
% Inflow and Outflow markers must be specified, for each blade (zone), following the natural groth of the machine (i.e, from the first blade to the last)
MARKER_TURBOMACHINERY= (inflow, outflow)
%
% Giles boundary condition for inflow, outfolw and mixing-plane
% Format inlet:  ( marker, TOTAL_CONDITIONS_PT, Total Pressure , Total Temperature, Flow dir-norm, Flow dir-tang, Flow dir-span, under-relax-avg, under-relax-fourier)
% Format outlet: ( marker, STATIC_PRESSURE, Static Pressure value, -, -, -, -, under-relax-avg, under-relax-fourier)
% Format mixing-plane in and out: ( marker, MIXING_IN or MIXING_OUT, -, -, -, -, -, -, under-relax-avg, under-relax-fourier)
MARKER_GILES= (inflow, TOTAL_CONDITIONS_PT, 13.8686E+05, 592.295, 1.0, 0.0, 0.0, 1.0, 1.0, outflow, STATIC_PRESSURE, 9.00E+05, 0.0, 0.0, 0.0, 0.0, 1.0, 1.0)
%
%YES Non reflectivity activated, NO the Giles BC behaves as a normal 1D characteristic-based BC
SPATIAL_FOURIER= YES
%---------------------------- TURBOMACHINERY SIMULATION -----------------------------%
%
% Specify kind of architecture (AXIAL, CENTRIPETAL, CENTRIFUGAL, CENTRIPETAL_AXIAL)
TURBOMACHINERY_KIND = AXIAL
%
% Specify ramp option for Outlet pressure (YES, NO) default NO
RAMP_OUTLET_PRESSURE= NO
%
% Parameters of the outlet pressure ramp (starting outlet pressure, updating-iteration-frequency, total number of iteration for the ramp)
RAMP_OUTLET_PRESSURE_COEFF= (700000.0, 10.0, 500)
%
% Specify Kind of average process for linearizing the Navier-Stokes equation at inflow and outflow BC included mixing-plane
% (ALGEBRAIC, AREA, MASSSFLUX, MIXEDOUT) default AREA 
AVERAGE_PROCESS_KIND= MIXEDOUT
%
% Specify Kind of average process for computing turbomachienry performance parameters
% (ALGEBRAIC, AREA, MASSSFLUX, MIXEDOUT) default AREA
PERFORMANCE_AVERAGE_PROCESS_KIND= MIXEDOUT
%
%Parameters of the Newton method for the MIXEDOUT average algorithm (under relaxation factor, tollerance, max number of iterations) 
MIXEDOUT_COEFF= (1.0, 1.0E-05, 15)
%
% Limit of Mach number below which the mixedout algorithm is substituted with a AREA average algorithm
AVERAGE_MACH_LIMIT= 0.03
%
%
% ------------------------ SURFACES IDENTIFICATION ----------------------------%
%
% Marker(s) of the surface in the surface flow solution file
MARKER_PLOTTING= (airfoil)
%
% Marker(s) of the surface where the non-dimensional coefficients are evaluated.
MARKER_MONITORING= (airfoil)
%
%
% ------------------------- GRID ADAPTATION STRATEGY --------------------------%
%
% Kind of grid adaptation (NONE, PERIODIC)
KIND_ADAPT= PERIODIC
%
%
% ------------- COMMON PARAMETERS DEFINING THE NUMERICAL METHOD ---------------%
%
% Numerical method for spatial gradients (GREEN_GAUSS, WEIGHTED_LEAST_SQUARES)
NUM_METHOD_GRAD= WEIGHTED_LEAST_SQUARES
%
% Courant-Friedrichs-Lewy condition of the finest grid
CFL_NUMBER= 40.0
%
% Adaptive CFL number (NO, YES)
CFL_ADAPT= NO
%
% Parameters of the adaptive CFL number (factor down, factor up, CFL min value, CFL max value )
CFL_ADAPT_PARAM= ( 1.3, 1.2, 1.0, 10.0)
%
%
% ------------------------ LINEAR SOLVER DEFINITION ---------------------------%
%
% Linear solver or smoother for implicit formulations (BCGSTAB, FGMRES, SMOOTHER)
LINEAR_SOLVER= FGMRES
%
% Preconditioner of the Krylov linear solver (ILU, LU_SGS, LINELET, JACOBI)
LINEAR_SOLVER_PREC= LU_SGS
%
% Min error of the linear solver for the implicit formulation
LINEAR_SOLVER_ERROR= 1E-4
%
% Max number of iterations of the linear solver for the implicit formulation
LINEAR_SOLVER_ITER= 5
%
%
% -------------------------- MULTIGRID PARAMETERS -----------------------------%
%
% ----------- NOT WORKING WITH PERIODIC BOUNDARY CONDITIONS !!!!! --------------%
%
%
% ----------------------- SLOPE LIMITER DEFINITION ----------------------------%
%
% Coefficient for the limiter
VENKAT_LIMITER_COEFF= 0.05
%
% Freeze the value of the limiter after a number of iterations
LIMITER_ITER= 999999
%
%
% -------------------- FLOW NUMERICAL METHOD DEFINITION -----------------------%
%
% Convective numerical method (JST, LAX-FRIEDRICH, CUSP, ROE, AUSM, HLLC,
%                              TURKEL_PREC, MSW)
CONV_NUM_METHOD_FLOW= ROE
%
% Spatial numerical order integration (1ST_ORDER, 2ND_ORDER, 2ND_ORDER_LIMITER)
MUSCL_FLOW= YES
%
% Slope limiter (VENKATAKRISHNAN, VAN_ALBADA_EDGE)
SLOPE_LIMITER_FLOW= VENKATAKRISHNAN
%
% Entropy fix coefficient (0.0 implies no entropy fixing, 1.0 implies scalar artificial dissipation, 0.001 default)
ENTROPY_FIX_COEFF= 0.03
%
% 2nd and 4th order artificial dissipation coefficients
JST_SENSOR_COEFF= ( 0.5, 0.02 )
%
% Time discretization (RUNGE-KUTTA_EXPLICIT, EULER_IMPLICIT, EULER_EXPLICIT)
TIME_DISCRE_FLOW= EULER_IMPLICIT
%
% Relaxation coefficient
%
%
% -------------------- TURBULENT NUMERICAL METHOD DEFINITION ------------------%
%
% Convective numerical method (SCALAR_UPWIND)
CONV_NUM_METHOD_TURB= SCALAR_UPWIND
%
% Monotonic Upwind Scheme for Conservation Laws (TVD) in the turbulence equations.
%           Required for 2nd order upwind schemes (NO, YES)
MUSCL_TURB= NO
%
% Slope limiter (VENKATAKRISHNAN, MINMOD)
SLOPE_LIMITER_TURB= VENKATAKRISHNAN
%
% Time discretization (EULER_IMPLICIT)
TIME_DISCRE_TURB= EULER_IMPLICIT
%
% Reduction factor of the CFL coefficient in the turbulence problem
CFL_REDUCTION_TURB= 1.0
%
%
% ----------------------- DESIGN VARIABLE PARAMETERS --------------------------%
%
% Kind of deformation (NO_DEFORMATION, TRANSLATION, ROTATION, SCALE,
%                      FFD_SETTING, FFD_NACELLE
%                      FFD_CONTROL_POINT, FFD_CAMBER, FFD_THICKNESS, FFD_TWIST
%                      FFD_CONTROL_POINT_2D, FFD_CAMBER_2D, FFD_THICKNESS_2D, FFD_TWIST_2D,
%                      HICKS_HENNE, SURFACE_BUMP)
DV_KIND= FFD_SETTING
% 
% Marker of the surface in which we are going apply the shape deformation
DV_MARKER= ( airfoil )
%
% Parameters of the shape deformation
DV_PARAM= ( MAIN_BOX, 3.0, 4.0, 0.0, 0.0)
%
% Value of the shape deformation
DV_VALUE= 0.01
%
%
% ------------------------ GRID DEFORMATION PARAMETERS ------------------------%
DEFORM_LINEAR_SOLVER_ITER= 250
%
%
% -------------------- FREE-FORM DEFORMATION PARAMETERS -----------------------%
%
% Tolerance of the Free-Form Deformation point inversion
FFD_TOLERANCE= 1E-10
%
% Maximum number of iterations in the Free-Form Deformation point inversion
FFD_ITERATIONS= 500
%
% FFD box definition: 3D case (FFD_BoxTag, X1, Y1, Z1, X2, Y2, Z2, X3, Y3, Z3, X4, Y4, Z4,
%                              X5, Y5, Z5, X6, Y6, Z6, X7, Y7, Z7, X8, Y8, Z8)
%                     2D case (FFD_BoxTag, X1, Y1, 0.0, X2, Y2, 0.0, X3, Y3, 0.0, X4, Y4, 0.0,
%                              0.0, 0.0, 0.0, 0.0, 0.0, 0.0, 0.0, 0.0, 0.0, 0.0, 0.0, 0.0)
FFD_DEFINITION= (MAIN_BOX, -0.007280, 0.012690, 0.0, 0.024666, 0.02200, 0.0, 0.04785, -0.04985, 0.0, 0.01709, -0.05911, 0.0, 0.0, 0.0, 0.0, 0.0, 0.0, 0.0, 0.0, 0.0, 0.0, 0.0, 0.0, 0.0)
%
% FFD box degree: 3D case (x_degree, y_degree, z_degree)
%                 2D case (x_degree, y_degree, 0)
FFD_DEGREE= ( 4 , 4 , 0 )
%
% Surface grid continuity at the intersection with the faces of the FFD boxes.
% To keep a particular level of surface continuity, SU2 automatically freezes the right
% number of control point planes (NO_DERIVATIVE, 1ST_DERIVATIVE, 2ND_DERIVATIVE, USER_INPUT)
FFD_CONTINUITY= 2ND_DERIVATIVE
%
%
% --------------------- OPTIMAL SHAPE DESIGN DEFINITION -----------------------%
%
% Optimization design variables, separated by semicolons
DEFINITION_DV= ( 19, 1.0 | airfoil | MAIN_BOX, 0, 0, 0.0, 0.0 ); ( 19, 1.0 | airfoil | MAIN_BOX, 1, 0, 0.0, 0.0 ); ( 19, 1.0 | airfoil | MAIN_BOX, 2, 0, 0.0, 0.0 ); ( 19, 1.0 | airfoil | MAIN_BOX, 3, 0, 0.0, 0.0 ); ( 19, 1.0 | airfoil | MAIN_BOX, 4, 0, 0.0, 0.0 ); ( 19, 1.0 | airfoil | MAIN_BOX, 0, 1, 0.0, 0.0 ); ( 19, 1.0 | airfoil | MAIN_BOX, 1, 1, 0.0, 0.0 ); ( 19, 1.0 | airfoil | MAIN_BOX, 2, 
%
% Optimization constraint functions with scaling factors, separated by semicolons
% ex= (Objective = Value ) * Scale, use '>','<','='
OPT_CONSTRAINT= ( FLOW_ANGLE_OUT < -74.0 ) * 0.001
%
% Optimization objective function with scaling factor
% ex= Objective * Scale
OPT_OBJECTIVE= ENTROPY_GENERATION* 0.0001
%
% Maximum number of iterations
OPT_ITERATIONS= 19
%
% Requested accuracy
OPT_ACCURACY= 1E-10
%
%
% --------------------- OBJECTIVE FUNCTION DEFINITION -----------------------%
%
% Objective function in optimization problem 
OBJECTIVE_FUNCTION= ENTROPY_GENERATION
%
%
% --------------------------- CONVERGENCE PARAMETERS --------------------------%
%
% Number of total iterations
ITER= 2001
% Convergence criteria (CAUCHY, RESIDUAL)
%
CONV_CRITERIA= RESIDUAL
%
%
%
% Min value of the residual (log10 of the residual)
CONV_RESIDUAL_MINVAL= -16
%
% Start convergence criteria at iteration number
CONV_STARTITER= 10
%
% Number of elements to apply the criteria
CONV_CAUCHY_ELEMS= 100
%
% Epsilon to control the series convergence
CONV_CAUCHY_EPS= 1E-6
%
%
%
% ------------------------- INPUT/OUTPUT INFORMATION --------------------------%
%
% Mesh input file
MESH_FILENAME= mesh_stator_turb.su2
%
% Mesh input file format (SU2, CGNS, NETCDF_ASCII)
MESH_FORMAT= SU2
%
% Mesh output file
MESH_OUT_FILENAME= su2mesh_per_optimal.su2
%
% Restart flow input file
SOLUTION_FILENAME= solution_flow.dat
%
% Restart adjoint input file
SOLUTION_ADJ_FILENAME= solution_adj.dat
%
% Output file format (PARAVIEW, TECPLOT, STL)
TABULAR_FORMAT= CSV
%
% Output file convergence history (w/o extension) 
CONV_FILENAME= history
%
% Output file restart flow
RESTART_FILENAME= restart_flow.dat
%
% Output file restart adjoint
RESTART_ADJ_FILENAME= restart_adj.dat
%
% Output file flow (w/o extension) variables
VOLUME_FILENAME= flow
%
% Output file adjoint (w/o extension) variables
VOLUME_ADJ_FILENAME= adjoint
%
% Output objective function gradient (using continuous adjoint)
GRAD_OBJFUNC_FILENAME= of_grad.dat
%
% Output file surface flow coefficient (w/o extension)
SURFACE_FILENAME= surface_flow
%
% Output file surface adjoint coefficient (w/o extension)
SURFACE_ADJ_FILENAME= surface_adjoint
%
% Writing solution file frequency
WRT_SOL_FREQ= 500
%
% Writing convergence history frequency
WRT_CON_FREQ= 1
%
SCREEN_OUTPUT=(INNER_ITER, RMS_ADJ_DENSITY, RMS_ADJ_TKE)
