%%%%%%%%%%%%%%%%%%%%%%%%%%%%%%%%%%%%%%%%%%%%%%%%%%%%%%%%%%%%%%%%%%%%%%%%%%%%%%%%
%                                                                              %
% SU2 configuration file                                                       %
% Case description: Transonic ORC nozzle                                       %
% Author: S. Vitale                                                            %
% Institution: Delft University of Technology                                  %
% Date: 2017.03.01                                                             %
% File Version 8.0.0 "Harrier"                                                 %
%                                                                              %
%%%%%%%%%%%%%%%%%%%%%%%%%%%%%%%%%%%%%%%%%%%%%%%%%%%%%%%%%%%%%%%%%%%%%%%%%%%%%%%%


% ------------- DIRECT, ADJOINT, AND LINEARIZED PROBLEM DEFINITION ------------%
%
SOLVER= RANS
KIND_TURB_MODEL= SST
SST_OPTIONS= V1994m
RESTART_SOL= NO
NZONES= 1

% -------------------- COMPRESSIBLE FREE-STREAM DEFINITION --------------------%
%
MACH_NUMBER= 0.1
AOA= 70.0
FREESTREAM_PRESSURE= 13.0E+5
FREESTREAM_TEMPERATURE=  592.295
FREESTREAM_DENSITY= 1.7418
FREESTREAM_OPTION= TEMPERATURE_FS
FREESTREAM_TURBULENCEINTENSITY = 0.03
FREESTREAM_TURB2LAMVISCRATIO = 100.0
INIT_OPTION= TD_CONDITIONS

% ---------------------- REFERENCE VALUE DEFINITION ---------------------------%
%
REF_ORIGIN_MOMENT_X = 0.00
REF_ORIGIN_MOMENT_Y = 0.00
REF_ORIGIN_MOMENT_Z = 0.00
REF_LENGTH= 1.0
REF_AREA= 1.0
REF_DIMENSIONALIZATION= FREESTREAM_PRESS_EQ_ONE

% ------------------------------ EQUATION OF STATE ----------------------------%
%
FLUID_MODEL= PR_GAS
GAMMA_VALUE= 1.0165
GAS_CONSTANT= 35.23
CRITICAL_TEMPERATURE= 564.1
CRITICAL_PRESSURE= 1415000.0
ACENTRIC_FACTOR= 0.529

% --------------------------- VISCOSITY MODEL ---------------------------------%
%
VISCOSITY_MODEL= CONSTANT_VISCOSITY
MU_CONSTANT= 1.3764E-5
MU_REF= 1.716E-5
MU_T_REF= 273.15
SUTHERLAND_CONSTANT= 110.4

% --------------------------- THERMAL CONDUCTIVITY MODEL ----------------------%
%
CONDUCTIVITY_MODEL= CONSTANT_CONDUCTIVITY
THERMAL_CONDUCTIVITY_CONSTANT= 0.047280

% -------------------- BOUNDARY CONDITION DEFINITION --------------------------%
%
MARKER_HEATFLUX= (airfoil, 0.0)
MARKER_PERIODIC= ( periodic_1, periodic_2, 0.0, 0.0, 0.0, 0.0, 0.0, 0.0, 0.0, 0.05749995, 0.0 )

%-------- INFLOW/OUTFLOW BOUNDARY CONDITION SPECIFIC FOR TURBOMACHINERY --------%
%
MARKER_TURBOMACHINERY= (inflow, outflow)
MARKER_GILES= (inflow, TOTAL_CONDITIONS_PT, 13.8686E+05, 592.295, 1.0, 0.0, 0.0, 1.0, 1.0, outflow, STATIC_PRESSURE, 9.00E+05, 0.0, 0.0, 0.0, 0.0, 1.0, 1.0)
SPATIAL_FOURIER= YES

%---------------------------- TURBOMACHINERY SIMULATION -----------------------------%
%
TURBOMACHINERY_KIND = AXIAL
RAMP_OUTLET_PRESSURE= NO
RAMP_OUTLET_PRESSURE_COEFF= (700000.0, 10.0, 500)
AVERAGE_PROCESS_KIND= MIXEDOUT
PERFORMANCE_AVERAGE_PROCESS_KIND= MIXEDOUT
MIXEDOUT_COEFF= (1.0, 1.0E-05, 15)
AVERAGE_MACH_LIMIT= 0.03

% ------------------------ SURFACES IDENTIFICATION ----------------------------%
%
MARKER_PLOTTING= (airfoil)
MARKER_MONITORING= (airfoil)
MARKER_ANALYZE= (outflow, inflow)

% ------------- COMMON PARAMETERS DEFINING THE NUMERICAL METHOD ---------------%
%
NUM_METHOD_GRAD= WEIGHTED_LEAST_SQUARES
CFL_NUMBER= 40.0
CFL_ADAPT= NO
CFL_ADAPT_PARAM= ( 1.3, 1.2, 1.0, 10.0)

% ------------------------ LINEAR SOLVER DEFINITION ---------------------------%
%
LINEAR_SOLVER= FGMRES
LINEAR_SOLVER_PREC= LU_SGS
LINEAR_SOLVER_ERROR= 1E-4
LINEAR_SOLVER_ITER= 5

% -------------------------- MULTIGRID PARAMETERS -----------------------------%
%
% ----------- NOT WORKING WITH PERIODIC BOUNDARY CONDITIONS !!!!! -------------%
%

% ----------------------- SLOPE LIMITER DEFINITION ----------------------------%
%
VENKAT_LIMITER_COEFF= 0.05
LIMITER_ITER= 999999

% -------------------- FLOW NUMERICAL METHOD DEFINITION -----------------------%
%
CONV_NUM_METHOD_FLOW= ROE
MUSCL_FLOW= YES
SLOPE_LIMITER_FLOW= VENKATAKRISHNAN
ENTROPY_FIX_COEFF= 0.03
JST_SENSOR_COEFF= ( 0.5, 0.02 )
TIME_DISCRE_FLOW= EULER_IMPLICIT

% -------------------- TURBULENT NUMERICAL METHOD DEFINITION ------------------%
%
CONV_NUM_METHOD_TURB= SCALAR_UPWIND
MUSCL_TURB= NO
SLOPE_LIMITER_TURB= VENKATAKRISHNAN
TIME_DISCRE_TURB= EULER_IMPLICIT
CFL_REDUCTION_TURB= 1.0

% ----------------------- DESIGN VARIABLE PARAMETERS --------------------------%
%
DV_KIND= FFD_SETTING
DV_MARKER= ( airfoil )
DV_PARAM= ( MAIN_BOX, 3.0, 4.0, 0.0, 0.0)
DV_VALUE= 0.01

% ------------------------ GRID DEFORMATION PARAMETERS ------------------------%
%
DEFORM_LINEAR_SOLVER_ITER= 250

% -------------------- FREE-FORM DEFORMATION PARAMETERS -----------------------%
%
FFD_TOLERANCE= 1E-10
FFD_ITERATIONS= 500
FFD_DEFINITION= (MAIN_BOX, -0.007280, 0.012690, 0.0, 0.024666, 0.02200, 0.0, 0.04785, -0.04985, 0.0, 0.01709, -0.05911, 0.0, 0.0, 0.0, 0.0, 0.0, 0.0, 0.0, 0.0, 0.0, 0.0, 0.0, 0.0, 0.0)
FFD_DEGREE= ( 4 , 4 , 0 )
FFD_CONTINUITY= 2ND_DERIVATIVE

% --------------------- OPTIMAL SHAPE DESIGN DEFINITION -----------------------%
%
DEFINITION_DV= ( 19, 1.0 | airfoil | MAIN_BOX, 0, 0, 0.0, 0.0 ); ( 19, 1.0 | airfoil | MAIN_BOX, 1, 0, 0.0, 0.0 ); ( 19, 1.0 | airfoil | MAIN_BOX, 2, 0, 0.0, 0.0 ); ( 19, 1.0 | airfoil | MAIN_BOX, 3, 0, 0.0, 0.0 ); ( 19, 1.0 | airfoil | MAIN_BOX, 4, 0, 0.0, 0.0 ); ( 19, 1.0 | airfoil | MAIN_BOX, 0, 1, 0.0, 0.0 ); ( 19, 1.0 | airfoil | MAIN_BOX, 1, 1, 0.0, 0.0 ); ( 19, 1.0 | airfoil | MAIN_BOX, 2, 
OPT_CONSTRAINT= ( FLOW_ANGLE_OUT < -74.0 ) * 0.001
OPT_OBJECTIVE= SURFACE_PRESSURE_DROP* 0.0001
OPT_ITERATIONS= 19
OPT_ACCURACY= 1E-10

% --------------------- OBJECTIVE FUNCTION DEFINITION -----------------------%
%
OBJECTIVE_FUNCTION= SURFACE_PRESSURE_DROP

% --------------------------- CONVERGENCE PARAMETERS --------------------------%
%
ITER= 2001
CONV_RESIDUAL_MINVAL= -16
CONV_STARTITER= 10
CONV_CAUCHY_ELEMS= 100
CONV_CAUCHY_EPS= 1E-6

% ------------------------- INPUT/OUTPUT INFORMATION --------------------------%
%
MESH_FILENAME= mesh_stator_turb.su2
MESH_FORMAT= SU2
MESH_OUT_FILENAME= su2mesh_per_optimal.su2
SOLUTION_FILENAME= solution_flow.dat
SOLUTION_ADJ_FILENAME= solution_adj.dat
TABULAR_FORMAT= CSV
CONV_FILENAME= history
RESTART_FILENAME= restart_flow.dat
RESTART_ADJ_FILENAME= restart_adj.dat
VOLUME_FILENAME= flow
VOLUME_ADJ_FILENAME= adjoint
GRAD_OBJFUNC_FILENAME= of_grad.dat
SURFACE_FILENAME= surface_flow
SURFACE_ADJ_FILENAME= surface_adjoint
OUTPUT_WRT_FREQ= 500
SCREEN_OUTPUT=(INNER_ITER, RMS_RES)
