%%%%%%%%%%%%%%%%%%%%%%%%%%%%%%%%%%%%%%%%%%%%%%%%%%%%%%%%%%%%%%%%%%%%%%%%%%%%%%%%
%                                                                              %
% SU2 configuration file                                                       %
% Case description: Poiseuille flow for testing a body force/periodicity       %
% Author: T. Kattmann                                                          %
% Institution: Robert Bosch GmbH                                               %
% Date: 2020.12.14                                                             %
% File Version 8.0.0 "Harrier"                                                 %
%                                                                              %
%%%%%%%%%%%%%%%%%%%%%%%%%%%%%%%%%%%%%%%%%%%%%%%%%%%%%%%%%%%%%%%%%%%%%%%%%%%%%%%%

% ------------- DIRECT, ADJOINT, AND LINEARIZED PROBLEM DEFINITION ------------%
%
SOLVER= INC_NAVIER_STOKES
%
KIND_TURB_MODEL= NONE
%
% ---------------- INCOMPRESSIBLE FLOW CONDITION DEFINITION -------------------%
%
INC_DENSITY_MODEL= CONSTANT
INC_ENERGY_EQUATION = NO
INC_DENSITY_INIT= 1.0
INC_VELOCITY_INIT= ( 0.0, 0.0, 0.3 )
INC_NONDIM= DIMENSIONAL
%
% --------------------------- VISCOSITY MODEL ---------------------------------%
%
VISCOSITY_MODEL= CONSTANT_VISCOSITY
MU_CONSTANT= 1.8e-5
%
% --------------------- STREAMWISE PERIODICITY DEFINITION ---------------------%
%
KIND_STREAMWISE_PERIODIC= PRESSURE_DROP
STREAMWISE_PERIODIC_PRESSURE_DROP= 0.001
%
% -------------------- BOUNDARY CONDITION DEFINITION --------------------------%
%
MARKER_HEATFLUX= (wall, 0.0)
MARKER_PERIODIC= ( inlet, outlet, 0.0, 0.0, 0.0, 0.0, 0.0, 0.0, 0.0, 0.0, 0.0005 )
%
MARKER_PLOTTING= ( inlet )
MARKER_MONITORING= ( wall )
MARKER_ANALYZE = ( oulet )
MARKER_ANALYZE_AVERAGE = AREA
%
% ------------- COMMON PARAMETERS DEFINING THE NUMERICAL METHOD ---------------%
%
NUM_METHOD_GRAD= WEIGHTED_LEAST_SQUARES
%CFL_NUMBER= 1e10
CFL_NUMBER= 50000
CFL_ADAPT= NO
CFL_ADAPT_PARAM= ( 0.5, 10, 15.0, 1e30 )
ITER= 15000
%
% ------------------------ LINEAR SOLVER DEFINITION ---------------------------%
%
LINEAR_SOLVER= FGMRES
LINEAR_SOLVER_PREC= ILU
LINEAR_SOLVER_ERROR= 1E-15
LINEAR_SOLVER_ITER= 10
%
% -------------------- FLOW NUMERICAL METHOD DEFINITION -----------------------%
%
CONV_NUM_METHOD_FLOW= FDS
MUSCL_FLOW= YES
SLOPE_LIMITER_FLOW= NONE
TIME_DISCRE_FLOW= EULER_IMPLICIT
%
% --------------------------- CONVERGENCE PARAMETERS --------------------------%
%
CONV_RESIDUAL_MINVAL= -24
CONV_STARTITER= 10
%
% ------------------------- INPUT/OUTPUT INFORMATION --------------------------%
%
MESH_FILENAME= pipe1cell3D.su2
%
OUTPUT_FILES= ( RESTART, PARAVIEW_MULTIBLOCK, SURFACE_TECPLOT_ASCII )
OUTPUT_WRT_FREQ= 1000
%
HISTORY_OUTPUT= ( RMS_RES, FLOW_COEFF, STREAMWISE_PERIODIC, LINSOL )
SCREEN_OUTPUT= ( INNER_ITER, RMS_PRESSURE, RMS_VELOCITY-X, RMS_VELOCITY-Z, STREAMWISE_MASSFLOW )
SCREEN_WRT_FREQ_INNER= 100
