%%%%%%%%%%%%%%%%%%%%%%%%%%%%%%%%%%%%%%%%%%%%%%%%%%%%%%%%%%%%%%%%%%%%%%%%%%%%%%%%
%                                                                              %
% SU2 configuration file                                                       %
% Case description: Unit Cell flow around pin array 3d (fluid)                 %
% Author: T. Kattmann                                                          %
% Institution: Robert Bosch GmbH                                               %
% Date: 07.06.2019                                                             %
% File Version 8.0.0 "Harrier"                                                 %
%                                                                              %
%%%%%%%%%%%%%%%%%%%%%%%%%%%%%%%%%%%%%%%%%%%%%%%%%%%%%%%%%%%%%%%%%%%%%%%%%%%%%%%%
%
% ------------- DIRECT, ADJOINT, AND LINEARIZED PROBLEM DEFINITION ------------%
%
SOLVER= INC_RANS
KIND_TURB_MODEL= SST
%
% ---------------- INCOMPRESSIBLE FLOW CONDITION DEFINITION -------------------%
%
INC_DENSITY_MODEL= CONSTANT
INC_DENSITY_INIT= 1045.0
INC_VELOCITY_INIT= ( 0.1, 0.0, 0.0 )
%
INC_ENERGY_EQUATION = YES
INC_TEMPERATURE_INIT= 338.0
SPECIFIC_HEAT_CP= 3540.0
%
INC_NONDIM= DIMENSIONAL
%
VISCOSITY_MODEL= CONSTANT_VISCOSITY
MU_CONSTANT= 0.001385
%
FREESTREAM_TURBULENCEINTENSITY= 0.05
FREESTREAM_TURB2LAMVISCRATIO= 10.0
%
% --------------------------- THERMAL CONDUCTIVITY MODEL ----------------------%
%
% Pr_lam = mu_lam [Pa*s] * c_p [J/(kg*K)] / lambda[W/(m*K)]
%        = 1.385e-3      * 3540           / 0.42
%        = 11.7 
CONDUCTIVITY_MODEL= CONSTANT_PRANDTL
PRANDTL_LAM= 11.7
%
TURBULENT_CONDUCTIVITY_MODEL= CONSTANT_PRANDTL_TURB
PRANDTL_TURB= 0.90
%
% --------------------- STREAMWISE PERIODICITY DEFINITION ---------------------%
%
KIND_STREAMWISE_PERIODIC= MASSFLOW
STREAMWISE_PERIODIC_PRESSURE_DROP= 210
STREAMWISE_PERIODIC_MASSFLOW= 0.009675
INC_OUTLET_DAMPING= 0.001
%
STREAMWISE_PERIODIC_TEMPERATURE= NO
STREAMWISE_PERIODIC_OUTLET_HEAT= -17.958584
%
% -------------------- BOUNDARY CONDITION DEFINITION --------------------------%
%
MARKER_HEATFLUX= ( fluid_top, 0.0, \
                   fluid_bottom_interface, 0.0, \
                   fluid_pin1, 0.0, \
                   fluid_pin3, 0.0 )
MARKER_SYM= ( fluid_sym_sides )
MARKER_PERIODIC= ( fluid_inlet, fluid_outlet, 0.0,0.0,0.0, 0.0,0.0,0.0, 0.0111544,0.0,0.0 )
%
% Alternative to periodic simulation
%INC_INLET_TYPE= VELOCITY_INLET
%MARKER_INLET= ( fluid_inlet, 338.0, 0.75, 1.0, 0.0, 0.0 )
%
%INC_OUTLET_TYPE= PRESSURE_OUTLET
%MARKER_OUTLET= ( fluid_outlet, 0.0 )
%
% ------------------------ SURFACES IDENTIFICATION ----------------------------%
%
MARKER_MONITORING= ( fluid_inlet, fluid_outlet )
%
MARKER_ANALYZE = ( fluid_outlet, fluid_inlet )
MARKER_ANALYZE_AVERAGE = MASSFLUX
%
% ------------- COMMON PARAMETERS DEFINING THE NUMERICAL METHOD ---------------%
%
NUM_METHOD_GRAD= GREEN_GAUSS
CFL_NUMBER= 10
CFL_ADAPT= NO
%
% ------------------------ LINEAR SOLVER DEFINITION ---------------------------%
%
LINEAR_SOLVER= FGMRES
LINEAR_SOLVER_PREC= ILU
LINEAR_SOLVER_ERROR= 1E-15
LINEAR_SOLVER_ITER= 15
%
% -------------------- FLOW NUMERICAL METHOD DEFINITION -----------------------%
%
CONV_NUM_METHOD_FLOW= FDS
MUSCL_FLOW= YES
SLOPE_LIMITER_FLOW= NONE
TIME_DISCRE_FLOW= EULER_IMPLICIT
%
% -------------------- TURBULENT NUMERICAL METHOD DEFINITION ------------------%
%
CONV_NUM_METHOD_TURB= SCALAR_UPWIND
MUSCL_TURB= NO
SLOPE_LIMITER_TURB= NONE
TIME_DISCRE_TURB= EULER_IMPLICIT
%
% --------------------------- CONVERGENCE PARAMETERS --------------------------%
%
CONV_FIELD= RMS_TEMPERATURE
CONV_RESIDUAL_MINVAL= -18
CONV_STARTITER= 100
%
% ------------------------- INPUT/OUTPUT INFORMATION --------------------------%
%
%HISTORY_OUTPUT= ( ITER, RMS_RES, STREAMWISE_PERIODIC, FLOW_COEFF )
