%%%%%%%%%%%%%%%%%%%%%%%%%%%%%%%%%%%%%%%%%%%%%%%%%%%%%%%%%%%%%%%%%%%%%%%%%%%%%%%%
%                                                                              %
% SU2 configuration file                                                       %
% Case description: 3D laminar flow around wall mounted cylinder               %
% Author: Nijso Beishuizen                                                     %
% Institution: TU Eindhoven                                                    %
% Date: 2025.03.16                                                             %
% File Version 8.2.0 "Harrier"                                                 %
%                                                                              %
%%%%%%%%%%%%%%%%%%%%%%%%%%%%%%%%%%%%%%%%%%%%%%%%%%%%%%%%%%%%%%%%%%%%%%%%%%%%%%%%

% ------------- DIRECT, ADJOINT, AND LINEARIZED PROBLEM DEFINITION ------------%
%
SOLVER= INC_EULER
KIND_TURB_MODEL= NONE
RESTART_SOL= YES

% ---------------- INCOMPRESSIBLE FLOW CONDITION DEFINITION -------------------%
%
% Re = rho * V * D / mu
%
INC_VELOCITY_INIT= ( 10, 0.0, 0.0 )

% --------------------------- VISCOSITY MODEL ---------------------------------%
%
INC_NONDIM= DIMENSIONAL
INC_DENSITY_MODEL= CONSTANT
INC_DENSITY_INIT= 1.0
FREESTREAM_DENSITY= 1.0
FREESTREAM_TEMPERATURE=300.0
FREESTREAM_VELOCITY=10.0 0.0 0.0	
INC_ENERGY_EQUATION= NO

% ---------------------- REFERENCE VALUE DEFINITION ---------------------------%
%
REF_ORIGIN_MOMENT_X = 0.25
REF_ORIGIN_MOMENT_Y = 0.00
REF_ORIGIN_MOMENT_Z = 0.00
REF_LENGTH= 1.0
REF_AREA= 1.0

% -------------------- BOUNDARY CONDITION DEFINITION --------------------------%
%
MARKER_EULER= ( wall_1, wall_2, wall )
MARKER_SYM= ( symmetry_top, symmetry, symmetry_side, wall_floor)
MARKER_INLET= ( inlet,300.0, 1.000000, 1.000000, 0.000000, 0.000000 )
INC_INLET_TYPE= ( VELOCITY_INLET )
INC_INLET_DAMPING= 0.01
MARKER_OUTLET= ( outlet, 0.000000 )
INC_OUTLET_TYPE= ( PRESSURE_OUTLET )
INC_OUTLET_DAMPING= 0.01

% ------------- COMMON PARAMETERS DEFINING THE NUMERICAL METHOD ---------------%
%
NUM_METHOD_GRAD= GREEN_GAUSS
CFL_NUMBER=10.0
CFL_ADAPT= NO
CFL_ADAPT_PARAM= ( 0.95, 1.005,0.1,100.0, 0.0001 )
ITER=2000
VENKAT_LIMITER_COEFF= 0.01
LINEAR_SOLVER= FGMRES
LINEAR_SOLVER_PREC= ILU
LINEAR_SOLVER_ERROR= 1E-12
LINEAR_SOLVER_ITER= 15

% -------------------------- MULTIGRID PARAMETERS -----------------------------%
%
MGLEVEL= 0
% -------------------- FLOW NUMERICAL METHOD DEFINITION -----------------------%
%
CONV_NUM_METHOD_FLOW= FDS
MUSCL_FLOW= NO
SLOPE_LIMITER_FLOW= NONE
JST_SENSOR_COEFF= ( 0.5, 0.04 )
TIME_DISCRE_FLOW= EULER_IMPLICIT

% --------------------------- CONVERGENCE PARAMETERS --------------------------%
%
CONV_RESIDUAL_MINVAL= -13
CONV_STARTITER= 10
CONV_CAUCHY_ELEMS= 100
CONV_CAUCHY_EPS= 1E-6

% ------------------------- INPUT/OUTPUT INFORMATION --------------------------%
%
OUTPUT_FILES= RESTART, PARAVIEW_MULTIBLOCK
MESH_FILENAME= cylinder_split.cgns
MESH_FORMAT= CGNS
SOLUTION_FILENAME= solution_flow.dat
TABULAR_FORMAT= CSV
CONV_FILENAME= history
RESTART_FILENAME= restart_flow.dat
VOLUME_FILENAME= flow
SURFACE_FILENAME= surface_flow
OUTPUT_WRT_FREQ= 100
SCREEN_OUTPUT= (INNER_ITER, RMS_PRESSURE, RMS_VELOCITY-X, RMS_VELOCITY-Y, RMS_VELOCITY-Z,AVG_CFL)
VOLUME_OUTPUT= SOLUTION, PRIMITIVE, TIMESTEP, RESIDUAL
