SOLVER= EULER
DEFORM_MESH= NO
KIND_TURB_MODEL= SST
MATH_PROBLEM= DISCRETE_ADJOINT
KIND_DISC_ADJ= RESIDUALS
AXISYMMETRIC= NO
RESTART_SOL= NO
SYSTEM_MEASUREMENTS= SI
MGLEVEL= 0
FLUID_MODEL= IDEAL_GAS
GAMMA_VALUE= 1.4
GAS_CONSTANT= 287.058
MACH_NUMBER= 0.25
REYNOLDS_NUMBER= 1000000
AOA= 1.0
SIDESLIP_ANGLE= 0.0
FREESTREAM_OPTION= TEMPERATURE_FS
FREESTREAM_PRESSURE= 101325
FREESTREAM_TEMPERATURE= 300
FREESTREAM_DENSITY= 1.24
REF_ORIGIN_MOMENT_X= 0.00
REF_ORIGIN_MOMENT_Y= 0.00
REF_ORIGIN_MOMENT_Z= 0.00
REF_LENGTH= 1.0
REF_AREA= 0
REF_DIMENSIONALIZATION= DIMENSIONAL
MARKER_EULER= ( bottom, top )
% MARKER_HEATFLUX= ( bottom, top )
MARKER_FAR= ( left, right )
MARKER_FLUID_LOAD= ( bottom, top )
MARKER_DEFORM_MESH= ( bottom, top )
MARKER_PLOTTING= ( left, bottom, right, top )
MARKER_MONITORING= ( bottom, top )
MARKER_DESIGNING= ( bottom, top )
CONV_NUM_METHOD_TURB= SCALAR_UPWIND
TIME_DISCRE_TURB= EULER_EXPLICIT
CFL_REDUCTION_TURB= 1.0
NUM_METHOD_GRAD= GREEN_GAUSS
OBJECTIVE_FUNCTION= LIFT
CFL_NUMBER= 100.0
CFL_ADAPT= NO
CFL_ADAPT_PARAM= ( 0.1, 1.2, 1, 150 )
RK_ALPHA_COEFF= ( 0.66667, 0.66667, 1.000000 )
ITER= 20000
INNER_ITER= 500
LINEAR_SOLVER= FGMRES
LINEAR_SOLVER_PREC= ILU
LINEAR_SOLVER_ERROR= 1E-10
LINEAR_SOLVER_ITER= 500
DEFORM_LINEAR_SOLVER= CONJUGATE_GRADIENT
DEFORM_LINEAR_SOLVER_PREC= ILU
DEFORM_LINEAR_SOLVER_ERROR= 1E-20
DEFORM_LINEAR_SOLVER_ITER= 1000
DISCADJ_LIN_SOLVER= FGMRES
DISCADJ_LIN_PREC= ILU
SMOOTH_GRADIENT= NO
CONV_NUM_METHOD_FLOW= ROE
MUSCL_FLOW= YES
SLOPE_LIMITER_FLOW= NONE
VENKAT_LIMITER_COEFF= 0.1
JST_SENSOR_COEFF= ( 0.5, 0.02 )
TIME_DISCRE_FLOW= EULER_IMPLICIT
CONV_NUM_METHOD_ADJFLOW= ROE
MUSCL_ADJFLOW= YES
SLOPE_LIMITER_ADJFLOW= NONE
CFL_REDUCTION_ADJFLOW= 1.0
TIME_DISCRE_ADJFLOW= EULER_EXPLICIT
CONV_FIELD= REL_RMS_DENSITY, LIFT
CONV_RESIDUAL_MINVAL= -16
CONV_STARTITER= 10
CONV_CAUCHY_ELEMS= 100
CONV_CAUCHY_EPS= 1E-3
SCREEN_OUTPUT= (INNER_ITER, RMS_DENSITY, REL_RMS_DENSITY, AVG_CFL, RMS_ADJ_DENSITY)
HISTORY_OUTPUT= ITER, FLOW_COEFF, AERO_COEFF, AOA, RMS_RES, REL_RMS_RES, SENSITIVITY
VOLUME_OUTPUT= (COORDINATES, SOLUTION, PRIMITIVE, RESIDUAL, SENSITIVITY)
MESH_FILENAME= mesh.su2
MESH_FORMAT= SU2
MESH_OUT_FILENAME= box.deformed.su2
SOLUTION_FILENAME= solution.dat
SOLUTION_ADJ_FILENAME= restart_adj.dat
TABULAR_FORMAT= TECPLOT
OUTPUT_FILES= (RESTART, TECPLOT, TECPLOT_ASCII, SURFACE_TECPLOT, SURFACE_TECPLOT_ASCII, CSV, SURFACE_CSV)
CONV_FILENAME= history
VOLUME_FILENAME= flow
VOLUME_ADJ_FILENAME= flow_adjoint
GRAD_OBJFUNC_FILENAME= of_grad.dat
SURFACE_FILENAME= surface_flow
SURFACE_ADJ_FILENAME= surface_adjoint
WRT_FORCES_BREAKDOWN= YES
BREAKDOWN_FILENAME= forces_breakdown.dat
OPT_ITERATIONS= 100
OPT_ACCURACY= 1e-10
OPT_RELAX_FACTOR= 1.0
OPT_GRADIENT_FACTOR= 1.0
OPT_BOUND_UPPER= 10000000000.0
OPT_BOUND_LOWER= -10000000000.0
OPT_COMBINE_OBJECTIVE= NO
OPT_CONSTRAINT= NONE
VALUE_OBJFUNC_FILENAME= of_eval.dat
TARGET_CL= 0.0
MARKER_OUTLET= (NONE)
MULTIPOINT_WEIGHT= (1.0)
MULTIPOINT_MACH_NUMBER= (0.25)
MULTIPOINT_AOA= (1.0)
MULTIPOINT_SIDESLIP_ANGLE= (0.0)
MULTIPOINT_REYNOLDS_NUMBER= (1000000)
MULTIPOINT_TARGET_CL= (0.0)
MULTIPOINT_FREESTREAM_PRESSURE= (101325)
MULTIPOINT_FREESTREAM_TEMPERATURE= (300)
MULTIPOINT_OUTLET_VALUE= (0.0)
MULTIPOINT_MESH_FILENAME= (box.su2)
