SOLVER= INC_NAVIER_STOKES
KIND_TURB_MODEL= NONE
KIND_SGS_MODEL= DYNAMIC_SMAGORINSKY
FLUID_MODEL= CONSTANT_DENSITY
INC_DENSITY_MODEL= CONSTANT
INC_DENSITY_INIT= 1.225
VISCOSITY_MODEL= CONSTANT_VISCOSITY
MU_CONSTANT= 1.789e-5
INC_VELOCITY_INIT= ( 102.0, 0.0, 0.0 )
MARKER_HEATFLUX= ( airfoil, 0.0 )
MARKER_FAR= ( farfield )
MARKER_SYM= ( symmetry, wake_axis )
MARKER_OUTLET= ( outflow, 0.0, )
INC_OUTLET_TYPE= PRESSURE_OUTLET
NUM_METHOD_GRAD= GREEN_GAUSS
CONV_NUM_METHOD_FLOW= FDS
TIME_DOMAIN= YES
TIME_MARCHING= TIME_STEPPING
TIME_STEP= 1e-5
MAX_TIME= 0.01
TIME_ITER= 10
INNER_ITER= 5
MESH_FILENAME= sc20012.su2
MESH_FORMAT= SU2
SCREEN_OUTPUT= TIME_ITER, RMS_PRESSURE, RMS_VELOCITY-X
OUTPUT_FILES= NONE
