
-------------------------------------------------------------------------
|    ___ _   _ ___                                                      |
|   / __| | | |_  )   Release 7.0.8 "Blackbird"                         |
|   \__ \ |_| |/ /                                                      |
|   |___/\___//___|   Suite (Computational Fluid Dynamics Code)         |
|                                                                       |
-------------------------------------------------------------------------
| SU2 Project Website: https://su2code.github.io                        |
|                                                                       |
| The SU2 Project is maintained by the SU2 Foundation                   |
| (http://su2foundation.org)                                            |
-------------------------------------------------------------------------
| Copyright 2012-2020, SU2 Contributors                                 |
|                                                                       |
| SU2 is free software; you can redistribute it and/or                  |
| modify it under the terms of the GNU Lesser General Public            |
| License as published by the Free Software Foundation; either          |
| version 2.1 of the License, or (at your option) any later version.    |
|                                                                       |
| SU2 is distributed in the hope that it will be useful,                |
| but WITHOUT ANY WARRANTY; without even the implied warranty of        |
| MERCHANTABILITY or FITNESS FOR A PARTICULAR PURPOSE. See the GNU      |
| Lesser General Public License for more details.                       |
|                                                                       |
| You should have received a copy of the GNU Lesser General Public      |
| License along with SU2. If not, see <http://www.gnu.org/licenses/>.   |
-------------------------------------------------------------------------

Parsing config file for zone 0

----------------- Physical Case Definition ( Zone 0 ) -------------------
Compressible Euler equations.
Mach number: 9.
Angle of attack (AoA): 0 deg, and angle of sideslip (AoS): 0 deg.
No restart solution, use the values at infinity (freestream).
Dimensional simulation.
The reference area is 1 m^2.
The semi-span will be computed using the max y(3D) value.
The reference length is 1 m.
Surface(s) plotted in the output file: euler, Wall.
Input mesh file name: invwedge.su2

--------------- Space Numerical Integration ( Zone 0 ) ------------------
AUSM solver for the flow inviscid terms.
Standard Roe without low-dissipation function.
First order integration in space.
Gradient for upwind reconstruction: inverse-distance weighted Least-Squares.
Gradient for viscous and source terms: inverse-distance weighted Least-Squares.

--------------- Time Numerical Integration  ( Zone 0 ) ------------------
Local time stepping (steady state simulation).
Euler explicit method for the flow equations.
No CFL adaptation.
Courant-Friedrichs-Lewy number:     0.75

------------------ Convergence Criteria  ( Zone 0 ) ---------------------
Maximum number of solver subiterations: 1.
Begin convergence monitoring at iteration 10.
Residual minimum value: 1e-50.
Cauchy series min. value: 1e-10.
Number of Cauchy elements: 100.
Begin windowed time average at iteration 0.

-------------------- Output Information ( Zone 0 ) ----------------------
Writing solution files every 100 iterations.
Writing the convergence history file every 1 inner iterations.
Writing the screen convergence history every 1 inner iterations.
The tabular file format is CSV (.csv).
Convergence history file name: convergence.
Forces breakdown file name: forces_breakdown.dat.
Surface file name: soln_surface.
Volume file name: soln_volume.
Restart file name: restart_flow.dat.

------------- Config File Boundary Information ( Zone 0 ) ---------------
+-----------------------------------------------------------------------+
|                        Marker Type|                        Marker Name|
+-----------------------------------------------------------------------+
|                          Far-field|                                top|
|                                   |                             bottom|
|                                   |                              right|
|                                   |                               left|
+-----------------------------------------------------------------------+

-------------------- Output Preprocessing ( Zone 0 ) --------------------
Screen output fields: INNER_ITER, RMS_DENSITY, RMS_MOMENTUM-X, RMS_MOMENTUM-Y, RMS_ENERGY
History output group(s): ITER, RMS_RES
Convergence field(s): RMS_DENSITY
Warning: No (valid) fields chosen for time convergence monitoring. Time convergence monitoring inactive.
Volume output fields: COORDINATES, SOLUTION, PRIMITIVE

------------------- Geometry Preprocessing ( Zone 0 ) -------------------
Two dimensional problem.
36 grid points.
25 volume elements.
4 surface markers.
5 boundary elements in index 0 (Marker = bottom).
5 boundary elements in index 1 (Marker = left).
5 boundary elements in index 2 (Marker = right).
5 boundary elements in index 3 (Marker = top).
25 quadrilaterals.
Setting point connectivity.
Renumbering points (Reverse Cuthill McKee Ordering).
Recomputing point connectivity.
Setting element connectivity.
Checking the numerical grid orientation.
All volume elements are correctly orientend.
All surface elements are correctly orientend.
Identifying edges and vertices.
Computing centers of gravity.
Setting the control volume structure.
Area of the computational grid: 1.
Searching for the closest normal neighbors to the surfaces.
Storing a mapping from global to local point index.
Compute the surface curvature.
Max K: 7.07107. Mean K: 2.35702. Standard deviation K: 3.33333.
Checking for periodicity.
Computing mesh quality statistics for the dual control volumes.
+--------------------------------------------------------------+
|           Mesh Quality Metric|        Minimum|        Maximum|
+--------------------------------------------------------------+
|    Orthogonality Angle (deg.)|             90|             90|
|     CV Face Area Aspect Ratio|              1|              2|
|           CV Sub-Volume Ratio|              1|              1|
+--------------------------------------------------------------+
Finding max control volume width.
Wetted area = 0 m.
Area projection in the x-plane = 0 m, y-plane = 0 m.
Max. coordinate in the x-direction = -1e+10 m, y-direction = -1e+10 m.
Min. coordinate in the x-direction = 1e+10 m, y-direction = 1e+10 m.
Computing wall distances.

-------------------- Solver Preprocessing ( Zone 0 ) --------------------
Inviscid flow: Computing density based on free-stream
temperature and pressure using the ideal gas law.
Force coefficients computed using free-stream values.

-- Models:
+------------------------------------------------------------------------------+
|          Viscosity Model|        Conductivity Model|              Fluid Model|
+------------------------------------------------------------------------------+
|                        -|                         -|             STANDARD_AIR|
+------------------------------------------------------------------------------+
-- Fluid properties:
+------------------------------------------------------------------------------+
|                  Name|    Dim. value|    Ref. value|      Unit|Non-dim. value|
+------------------------------------------------------------------------------+
|          Gas Constant|       287.058|             1|  N.m/kg.K|       287.058|
|      Spec. Heat Ratio|             -|             -|         -|           1.4|
+------------------------------------------------------------------------------+
-- Initial and free-stream conditions:
+------------------------------------------------------------------------------+
|                  Name|    Dim. value|    Ref. value|      Unit|Non-dim. value|
+------------------------------------------------------------------------------+
|       Static Pressure|        101325|             1|        Pa|        101325|
|               Density|       1.17659|             1|    kg/m^3|       1.17659|
|           Temperature|           300|             1|         K|           300|
|          Total Energy|   5.09815e+06|             1|   m^2/s^2|   5.09815e+06|
|            Velocity-X|       3125.01|             1|       m/s|       3125.01|
|            Velocity-Y|             0|             1|       m/s|             0|
|    Velocity Magnitude|       3125.01|             1|       m/s|       3125.01|
+------------------------------------------------------------------------------+
|           Mach Number|             -|             -|         -|             9|
+------------------------------------------------------------------------------+
Explicit scheme. No Jacobian structure (Euler). MG level: 0.

------------------- Numerics Preprocessing ( Zone 0 ) -------------------

----------------- Integration Preprocessing ( Zone 0 ) ------------------

------------------- Iteration Preprocessing ( Zone 0 ) ------------------
Euler/Navier-Stokes/RANS fluid iteration.

------------------------------ Begin Solver -----------------------------

Simulation Run using the Single-zone Driver
Velocity_i=3125.01
Velocity_i=0
Pressure_i=101325
Density_i=1.17659
Energy_i=5.09815e+06
SoundSpeed_i=347.224
Velocity_j=3125.01
Velocity_j=0
Pressure_j=101325
Density_j=1.17659
Energy_j=5.09815e+06
SoundSpeed_j=347.224
Velocity_i=3125.01
Velocity_i=0
Pressure_i=101325
Density_i=1.17659
Energy_i=5.09815e+06
SoundSpeed_i=347.224
Velocity_j=3125.01
Velocity_j=0
Pressure_j=101325
Density_j=1.17659
Energy_j=5.09815e+06
SoundSpeed_j=347.224
Velocity_i=3125.01
Velocity_i=0
Pressure_i=101325
Density_i=1.17659
Energy_i=5.09815e+06
SoundSpeed_i=347.224
Velocity_j=3125.01
Velocity_j=0
Pressure_j=101325
Density_j=1.17659
Energy_j=5.09815e+06
SoundSpeed_j=347.224
Velocity_i=3125.01
Velocity_i=0
Pressure_i=101325
Density_i=1.17659
Energy_i=5.09815e+06
SoundSpeed_i=347.224
Velocity_j=3125.01
Velocity_j=0
Pressure_j=101325
Density_j=1.17659
Energy_j=5.09815e+06
SoundSpeed_j=347.224
Velocity_i=3125.01
Velocity_i=0
Pressure_i=101325
Density_i=1.17659
Energy_i=5.09815e+06
SoundSpeed_i=347.224
Velocity_j=3125.01
Velocity_j=0
Pressure_j=101325
Density_j=1.17659
Energy_j=5.09815e+06
SoundSpeed_j=347.224
Velocity_i=3125.01
Velocity_i=0
Pressure_i=101325
Density_i=1.17659
Energy_i=5.09815e+06
SoundSpeed_i=347.224
Velocity_j=3125.01
Velocity_j=0
Pressure_j=101325
Density_j=1.17659
Energy_j=5.09815e+06
SoundSpeed_j=347.224
Velocity_i=3125.01
Velocity_i=0
Pressure_i=101325
Density_i=1.17659
Energy_i=5.09815e+06
SoundSpeed_i=347.224
Velocity_j=3125.01
Velocity_j=0
Pressure_j=101325
Density_j=1.17659
Energy_j=5.09815e+06
SoundSpeed_j=347.224
Velocity_i=3125.01
Velocity_i=0
Pressure_i=101325
Density_i=1.17659
Energy_i=5.09815e+06
SoundSpeed_i=347.224
Velocity_j=3125.01
Velocity_j=0
Pressure_j=101325
Density_j=1.17659
Energy_j=5.09815e+06
SoundSpeed_j=347.224
Velocity_i=3125.01
Velocity_i=0
Pressure_i=101325
Density_i=1.17659
Energy_i=5.09815e+06
SoundSpeed_i=347.224
Velocity_j=3125.01
Velocity_j=0
Pressure_j=101325
Density_j=1.17659
Energy_j=5.09815e+06
SoundSpeed_j=347.224
Velocity_i=3125.01
Velocity_i=0
Pressure_i=101325
Density_i=1.17659
Energy_i=5.09815e+06
SoundSpeed_i=347.224
Velocity_j=3125.01
Velocity_j=0
Pressure_j=101325
Density_j=1.17659
Energy_j=5.09815e+06
SoundSpeed_j=347.224
Velocity_i=3125.01
Velocity_i=0
Pressure_i=101325
Density_i=1.17659
Energy_i=5.09815e+06
SoundSpeed_i=347.224
Velocity_j=3125.01
Velocity_j=0
Pressure_j=101325
Density_j=1.17659
Energy_j=5.09815e+06
SoundSpeed_j=347.224
Velocity_i=3125.01
Velocity_i=0
Pressure_i=101325
Density_i=1.17659
Energy_i=5.09815e+06
SoundSpeed_i=347.224
Velocity_j=3125.01
Velocity_j=0
Pressure_j=101325
Density_j=1.17659
Energy_j=5.09815e+06
SoundSpeed_j=347.224
Velocity_i=3125.01
Velocity_i=0
Pressure_i=101325
Density_i=1.17659
Energy_i=5.09815e+06
SoundSpeed_i=347.224
Velocity_j=3125.01
Velocity_j=0
Pressure_j=101325
Density_j=1.17659
Energy_j=5.09815e+06
SoundSpeed_j=347.224
Velocity_i=3125.01
Velocity_i=0
Pressure_i=101325
Density_i=1.17659
Energy_i=5.09815e+06
SoundSpeed_i=347.224
Velocity_j=3125.01
Velocity_j=0
Pressure_j=101325
Density_j=1.17659
Energy_j=5.09815e+06
SoundSpeed_j=347.224
Velocity_i=3125.01
Velocity_i=0
Pressure_i=101325
Density_i=1.17659
Energy_i=5.09815e+06
SoundSpeed_i=347.224
Velocity_j=3125.01
Velocity_j=0
Pressure_j=101325
Density_j=1.17659
Energy_j=5.09815e+06
SoundSpeed_j=347.224
Velocity_i=3125.01
Velocity_i=0
Pressure_i=101325
Density_i=1.17659
Energy_i=5.09815e+06
SoundSpeed_i=347.224
Velocity_j=3125.01
Velocity_j=0
Pressure_j=101325
Density_j=1.17659
Energy_j=5.09815e+06
SoundSpeed_j=347.224
Velocity_i=3125.01
Velocity_i=0
Pressure_i=101325
Density_i=1.17659
Energy_i=5.09815e+06
SoundSpeed_i=347.224
Velocity_j=3125.01
Velocity_j=0
Pressure_j=101325
Density_j=1.17659
Energy_j=5.09815e+06
SoundSpeed_j=347.224
Velocity_i=3125.01
Velocity_i=0
Pressure_i=101325
Density_i=1.17659
Energy_i=5.09815e+06
SoundSpeed_i=347.224
Velocity_j=3125.01
Velocity_j=0
Pressure_j=101325
Density_j=1.17659
Energy_j=5.09815e+06
SoundSpeed_j=347.224
Velocity_i=3125.01
Velocity_i=0
Pressure_i=101325
Density_i=1.17659
Energy_i=5.09815e+06
SoundSpeed_i=347.224
Velocity_j=3125.01
Velocity_j=0
Pressure_j=101325
Density_j=1.17659
Energy_j=5.09815e+06
SoundSpeed_j=347.224
Velocity_i=3125.01
Velocity_i=0
Pressure_i=101325
Density_i=1.17659
Energy_i=5.09815e+06
SoundSpeed_i=347.224
Velocity_j=3125.01
Velocity_j=0
Pressure_j=101325
Density_j=1.17659
Energy_j=5.09815e+06
SoundSpeed_j=347.224
Velocity_i=3125.01
Velocity_i=0
Pressure_i=101325
Density_i=1.17659
Energy_i=5.09815e+06
SoundSpeed_i=347.224
Velocity_j=3125.01
Velocity_j=0
Pressure_j=101325
Density_j=1.17659
Energy_j=5.09815e+06
SoundSpeed_j=347.224
Velocity_i=3125.01
Velocity_i=0
Pressure_i=101325
Density_i=1.17659
Energy_i=5.09815e+06
SoundSpeed_i=347.224
Velocity_j=3125.01
Velocity_j=0
Pressure_j=101325
Density_j=1.17659
Energy_j=5.09815e+06
SoundSpeed_j=347.224
Velocity_i=3125.01
Velocity_i=0
Pressure_i=101325
Density_i=1.17659
Energy_i=5.09815e+06
SoundSpeed_i=347.224
Velocity_j=3125.01
Velocity_j=0
Pressure_j=101325
Density_j=1.17659
Energy_j=5.09815e+06
SoundSpeed_j=347.224
Velocity_i=3125.01
Velocity_i=0
Pressure_i=101325
Density_i=1.17659
Energy_i=5.09815e+06
SoundSpeed_i=347.224
Velocity_j=3125.01
Velocity_j=0
Pressure_j=101325
Density_j=1.17659
Energy_j=5.09815e+06
SoundSpeed_j=347.224
Velocity_i=3125.01
Velocity_i=0
Pressure_i=101325
Density_i=1.17659
Energy_i=5.09815e+06
SoundSpeed_i=347.224
Velocity_j=3125.01
Velocity_j=0
Pressure_j=101325
Density_j=1.17659
Energy_j=5.09815e+06
SoundSpeed_j=347.224
Velocity_i=3125.01
Velocity_i=0
Pressure_i=101325
Density_i=1.17659
Energy_i=5.09815e+06
SoundSpeed_i=347.224
Velocity_j=3125.01
Velocity_j=0
Pressure_j=101325
Density_j=1.17659
Energy_j=5.09815e+06
SoundSpeed_j=347.224
Velocity_i=3125.01
Velocity_i=0
Pressure_i=101325
Density_i=1.17659
Energy_i=5.09815e+06
SoundSpeed_i=347.224
Velocity_j=3125.01
Velocity_j=0
Pressure_j=101325
Density_j=1.17659
Energy_j=5.09815e+06
SoundSpeed_j=347.224
Velocity_i=3125.01
Velocity_i=0
Pressure_i=101325
Density_i=1.17659
Energy_i=5.09815e+06
SoundSpeed_i=347.224
Velocity_j=3125.01
Velocity_j=0
Pressure_j=101325
Density_j=1.17659
Energy_j=5.09815e+06
SoundSpeed_j=347.224
Velocity_i=3125.01
Velocity_i=0
Pressure_i=101325
Density_i=1.17659
Energy_i=5.09815e+06
SoundSpeed_i=347.224
Velocity_j=3125.01
Velocity_j=0
Pressure_j=101325
Density_j=1.17659
Energy_j=5.09815e+06
SoundSpeed_j=347.224
Velocity_i=3125.01
Velocity_i=0
Pressure_i=101325
Density_i=1.17659
Energy_i=5.09815e+06
SoundSpeed_i=347.224
Velocity_j=3125.01
Velocity_j=0
Pressure_j=101325
Density_j=1.17659
Energy_j=5.09815e+06
SoundSpeed_j=347.224
Velocity_i=3125.01
Velocity_i=0
Pressure_i=101325
Density_i=1.17659
Energy_i=5.09815e+06
SoundSpeed_i=347.224
Velocity_j=3125.01
Velocity_j=0
Pressure_j=101325
Density_j=1.17659
Energy_j=5.09815e+06
SoundSpeed_j=347.224
Velocity_i=3125.01
Velocity_i=0
Pressure_i=101325
Density_i=1.17659
Energy_i=5.09815e+06
SoundSpeed_i=347.224
Velocity_j=3125.01
Velocity_j=0
Pressure_j=101325
Density_j=1.17659
Energy_j=5.09815e+06
SoundSpeed_j=347.224
Velocity_i=3125.01
Velocity_i=0
Pressure_i=101325
Density_i=1.17659
Energy_i=5.09815e+06
SoundSpeed_i=347.224
Velocity_j=3125.01
Velocity_j=0
Pressure_j=101325
Density_j=1.17659
Energy_j=5.09815e+06
SoundSpeed_j=347.224
Velocity_i=3125.01
Velocity_i=0
Pressure_i=101325
Density_i=1.17659
Energy_i=5.09815e+06
SoundSpeed_i=347.224
Velocity_j=3125.01
Velocity_j=0
Pressure_j=101325
Density_j=1.17659
Energy_j=5.09815e+06
SoundSpeed_j=347.224
Velocity_i=3125.01
Velocity_i=0
Pressure_i=101325
Density_i=1.17659
Energy_i=5.09815e+06
SoundSpeed_i=347.224
Velocity_j=3125.01
Velocity_j=0
Pressure_j=101325
Density_j=1.17659
Energy_j=5.09815e+06
SoundSpeed_j=347.224
Velocity_i=3125.01
Velocity_i=0
Pressure_i=101325
Density_i=1.17659
Energy_i=5.09815e+06
SoundSpeed_i=347.224
Velocity_j=3125.01
Velocity_j=0
Pressure_j=101325
Density_j=1.17659
Energy_j=5.09815e+06
SoundSpeed_j=347.224
Velocity_i=3125.01
Velocity_i=0
Pressure_i=101325
Density_i=1.17659
Energy_i=5.09815e+06
SoundSpeed_i=347.224
Velocity_j=3125.01
Velocity_j=0
Pressure_j=101325
Density_j=1.17659
Energy_j=5.09815e+06
SoundSpeed_j=347.224
Velocity_i=3125.01
Velocity_i=0
Pressure_i=101325
Density_i=1.17659
Energy_i=5.09815e+06
SoundSpeed_i=347.224
Velocity_j=3125.01
Velocity_j=0
Pressure_j=101325
Density_j=1.17659
Energy_j=5.09815e+06
SoundSpeed_j=347.224
Velocity_i=3125.01
Velocity_i=0
Pressure_i=101325
Density_i=1.17659
Energy_i=5.09815e+06
SoundSpeed_i=347.224
Velocity_j=3125.01
Velocity_j=0
Pressure_j=101325
Density_j=1.17659
Energy_j=5.09815e+06
SoundSpeed_j=347.224
Velocity_i=3125.01
Velocity_i=0
Pressure_i=101325
Density_i=1.17659
Energy_i=5.09815e+06
SoundSpeed_i=347.224
Velocity_j=3125.01
Velocity_j=0
Pressure_j=101325
Density_j=1.17659
Energy_j=5.09815e+06
SoundSpeed_j=347.224
Velocity_i=3125.01
Velocity_i=0
Pressure_i=101325
Density_i=1.17659
Energy_i=5.09815e+06
SoundSpeed_i=347.224
Velocity_j=3125.01
Velocity_j=0
Pressure_j=101325
Density_j=1.17659
Energy_j=5.09815e+06
SoundSpeed_j=347.224
Velocity_i=3125.01
Velocity_i=0
Pressure_i=101325
Density_i=1.17659
Energy_i=5.09815e+06
SoundSpeed_i=347.224
Velocity_j=3125.01
Velocity_j=0
Pressure_j=101325
Density_j=1.17659
Energy_j=5.09815e+06
SoundSpeed_j=347.224
Velocity_i=3125.01
Velocity_i=0
Pressure_i=101325
Density_i=1.17659
Energy_i=5.09815e+06
SoundSpeed_i=347.224
Velocity_j=3125.01
Velocity_j=0
Pressure_j=101325
Density_j=1.17659
Energy_j=5.09815e+06
SoundSpeed_j=347.224
Velocity_i=3125.01
Velocity_i=0
Pressure_i=101325
Density_i=1.17659
Energy_i=5.09815e+06
SoundSpeed_i=347.224
Velocity_j=3125.01
Velocity_j=0
Pressure_j=101325
Density_j=1.17659
Energy_j=5.09815e+06
SoundSpeed_j=347.224
Velocity_i=3125.01
Velocity_i=0
Pressure_i=101325
Density_i=1.17659
Energy_i=5.09815e+06
SoundSpeed_i=347.224
Velocity_j=3125.01
Velocity_j=0
Pressure_j=101325
Density_j=1.17659
Energy_j=5.09815e+06
SoundSpeed_j=347.224
Velocity_i=3125.01
Velocity_i=0
Pressure_i=101325
Density_i=1.17659
Energy_i=5.09815e+06
SoundSpeed_i=347.224
Velocity_j=3125.01
Velocity_j=0
Pressure_j=101325
Density_j=1.17659
Energy_j=5.09815e+06
SoundSpeed_j=347.224
Velocity_i=3125.01
Velocity_i=0
Pressure_i=101325
Density_i=1.17659
Energy_i=5.09815e+06
SoundSpeed_i=347.224
Velocity_j=3125.01
Velocity_j=0
Pressure_j=101325
Density_j=1.17659
Energy_j=5.09815e+06
SoundSpeed_j=347.224
Velocity_i=3125.01
Velocity_i=0
Pressure_i=101325
Density_i=1.17659
Energy_i=5.09815e+06
SoundSpeed_i=347.224
Velocity_j=3125.01
Velocity_j=0
Pressure_j=101325
Density_j=1.17659
Energy_j=5.09815e+06
SoundSpeed_j=347.224
Velocity_i=3125.01
Velocity_i=0
Pressure_i=101325
Density_i=1.17659
Energy_i=5.09815e+06
SoundSpeed_i=347.224
Velocity_j=3125.01
Velocity_j=0
Pressure_j=101325
Density_j=1.17659
Energy_j=5.09815e+06
SoundSpeed_j=347.224
Velocity_i=3125.01
Velocity_i=0
Pressure_i=101325
Density_i=1.17659
Energy_i=5.09815e+06
SoundSpeed_i=347.224
Velocity_j=3125.01
Velocity_j=0
Pressure_j=101325
Density_j=1.17659
Energy_j=5.09815e+06
SoundSpeed_j=347.224
Velocity_i=3125.01
Velocity_i=0
Pressure_i=101325
Density_i=1.17659
Energy_i=5.09815e+06
SoundSpeed_i=347.224
Velocity_j=3125.01
Velocity_j=0
Pressure_j=101325
Density_j=1.17659
Energy_j=5.09815e+06
SoundSpeed_j=347.224
Velocity_i=3125.01
Velocity_i=0
Pressure_i=101325
Density_i=1.17659
Energy_i=5.09815e+06
SoundSpeed_i=347.224
Velocity_j=3125.01
Velocity_j=0
Pressure_j=101325
Density_j=1.17659
Energy_j=5.09815e+06
SoundSpeed_j=347.224
Velocity_i=3125.01
Velocity_i=0
Pressure_i=101325
Density_i=1.17659
Energy_i=5.09815e+06
SoundSpeed_i=347.224
Velocity_j=3125.01
Velocity_j=0
Pressure_j=101325
Density_j=1.17659
Energy_j=5.09815e+06
SoundSpeed_j=347.224
Velocity_i=3125.01
Velocity_i=0
Pressure_i=101325
Density_i=1.17659
Energy_i=5.09815e+06
SoundSpeed_i=347.224
Velocity_j=3125.01
Velocity_j=0
Pressure_j=101325
Density_j=1.17659
Energy_j=5.09815e+06
SoundSpeed_j=347.224
Velocity_i=3125.01
Velocity_i=0
Pressure_i=101325
Density_i=1.17659
Energy_i=5.09815e+06
SoundSpeed_i=347.224
Velocity_j=3125.01
Velocity_j=0
Pressure_j=101325
Density_j=1.17659
Energy_j=5.09815e+06
SoundSpeed_j=347.224
Velocity_i=3125.01
Velocity_i=0
Pressure_i=101325
Density_i=1.17659
Energy_i=5.09815e+06
SoundSpeed_i=347.224
Velocity_j=3125.01
Velocity_j=0
Pressure_j=101325
Density_j=1.17659
Energy_j=5.09815e+06
SoundSpeed_j=347.224
Velocity_i=3125.01
Velocity_i=0
Pressure_i=101325
Density_i=1.17659
Energy_i=5.09815e+06
SoundSpeed_i=347.224
Velocity_j=3125.01
Velocity_j=0
Pressure_j=101325
Density_j=1.17659
Energy_j=5.09815e+06
SoundSpeed_j=347.224
Velocity_i=3125.01
Velocity_i=0
Pressure_i=101325
Density_i=1.17659
Energy_i=5.09815e+06
SoundSpeed_i=347.224
Velocity_j=3125.01
Velocity_j=0
Pressure_j=101325
Density_j=1.17659
Energy_j=5.09815e+06
SoundSpeed_j=347.224
Velocity_i=3125.01
Velocity_i=0
Pressure_i=101325
Density_i=1.17659
Energy_i=5.09815e+06
SoundSpeed_i=347.224
Velocity_j=3125.01
Velocity_j=0
Pressure_j=101325
Density_j=1.17659
Energy_j=5.09815e+06
SoundSpeed_j=347.224
Velocity_i=3125.01
Velocity_i=0
Pressure_i=101325
Density_i=1.17659
Energy_i=5.09815e+06
SoundSpeed_i=347.224
Velocity_j=3125.01
Velocity_j=0
Pressure_j=101325
Density_j=1.17659
Energy_j=5.09815e+06
SoundSpeed_j=347.224

iPoint=35
Velocity_i=3125.01
Velocity_i=0
Pressure_i=101325
Density_i=1.17659
Energy_i=5.09815e+06
SoundSpeed_i=347.224
Velocity_j=3125.01
Velocity_j=0
Pressure_j=101325
Density_j=1.17659
Energy_j=5.09815e+06
SoundSpeed_j=347.224
res[0]=0
res[1]=0
res[2]=-10132.5
res[3]=0

iPoint=34
Velocity_i=3125.01
Velocity_i=0
Pressure_i=101325
Density_i=1.17659
Energy_i=5.09815e+06
SoundSpeed_i=347.224
Velocity_j=3125.01
Velocity_j=0
Pressure_j=101325
Density_j=1.17659
Energy_j=5.09815e+06
SoundSpeed_j=347.224
res[0]=0
res[1]=0
res[2]=-20265
res[3]=0

iPoint=32
Velocity_i=3125.01
Velocity_i=0
Pressure_i=101325
Density_i=1.17659
Energy_i=5.09815e+06
SoundSpeed_i=347.224
Velocity_j=3125.01
Velocity_j=0
Pressure_j=101325
Density_j=1.17659
Energy_j=5.09815e+06
SoundSpeed_j=347.224
res[0]=0
res[1]=0
res[2]=-20265
res[3]=0

iPoint=29
Velocity_i=3125.01
Velocity_i=0
Pressure_i=101325
Density_i=1.17659
Energy_i=5.09815e+06
SoundSpeed_i=347.224
Velocity_j=3125.01
Velocity_j=0
Pressure_j=101325
Density_j=1.17659
Energy_j=5.09815e+06
SoundSpeed_j=347.224
res[0]=0
res[1]=0
res[2]=-20265
res[3]=0

iPoint=25
Velocity_i=3125.01
Velocity_i=0
Pressure_i=101325
Density_i=1.17659
Energy_i=5.09815e+06
SoundSpeed_i=347.224
Velocity_j=3125.01
Velocity_j=0
Pressure_j=101325
Density_j=1.17659
Energy_j=5.09815e+06
SoundSpeed_j=347.224
res[0]=0
res[1]=0
res[2]=-20265
res[3]=0

iPoint=20
Velocity_i=3125.01
Velocity_i=0
Pressure_i=101325
Density_i=1.17659
Energy_i=5.09815e+06
SoundSpeed_i=347.224
Velocity_j=3125.01
Velocity_j=0
Pressure_j=101325
Density_j=1.17659
Energy_j=5.09815e+06
SoundSpeed_j=347.224
res[0]=0
res[1]=0
res[2]=-10132.5
res[3]=0

iPoint=15
Velocity_i=3125.01
Velocity_i=0
Pressure_i=101325
Density_i=1.17659
Energy_i=5.09815e+06
SoundSpeed_i=347.224
Velocity_j=3125.01
Velocity_j=0
Pressure_j=101325
Density_j=1.17659
Energy_j=5.09815e+06
SoundSpeed_j=347.224
res[0]=-367.687
res[1]=-1.15916e+06
res[2]=-0
res[3]=-1.90619e+09

iPoint=21
Velocity_i=3125.01
Velocity_i=0
Pressure_i=101325
Density_i=1.17659
Energy_i=5.09815e+06
SoundSpeed_i=347.224
Velocity_j=3125.01
Velocity_j=0
Pressure_j=101325
Density_j=1.17659
Energy_j=5.09815e+06
SoundSpeed_j=347.224
res[0]=-735.373
res[1]=-2.31832e+06
res[2]=-0
res[3]=-3.81237e+09

iPoint=26
Velocity_i=3125.01
Velocity_i=0
Pressure_i=101325
Density_i=1.17659
Energy_i=5.09815e+06
SoundSpeed_i=347.224
Velocity_j=3125.01
Velocity_j=0
Pressure_j=101325
Density_j=1.17659
Energy_j=5.09815e+06
SoundSpeed_j=347.224
res[0]=-735.373
res[1]=-2.31832e+06
res[2]=-0
res[3]=-3.81237e+09

iPoint=30
Velocity_i=3125.01
Velocity_i=0
Pressure_i=101325
Density_i=1.17659
Energy_i=5.09815e+06
SoundSpeed_i=347.224
Velocity_j=3125.01
Velocity_j=0
Pressure_j=101325
Density_j=1.17659
Energy_j=5.09815e+06
SoundSpeed_j=347.224
res[0]=-735.373
res[1]=-2.31832e+06
res[2]=-0
res[3]=-3.81237e+09

iPoint=33
Velocity_i=3125.01
Velocity_i=0
Pressure_i=101325
Density_i=1.17659
Energy_i=5.09815e+06
SoundSpeed_i=347.224
Velocity_j=3125.01
Velocity_j=0
Pressure_j=101325
Density_j=1.17659
Energy_j=5.09815e+06
SoundSpeed_j=347.224
res[0]=-735.373
res[1]=-2.31832e+06
res[2]=-0
res[3]=-3.81237e+09

iPoint=35
Velocity_i=3125.01
Velocity_i=0
Pressure_i=101325
Density_i=1.17659
Energy_i=5.09815e+06
SoundSpeed_i=347.224
Velocity_j=3125.01
Velocity_j=0
Pressure_j=101325
Density_j=1.17659
Energy_j=5.09815e+06
SoundSpeed_j=347.224
res[0]=-367.687
res[1]=-1.15916e+06
res[2]=-0
res[3]=-1.90619e+09

iPoint=20
Velocity_i=3125.01
Velocity_i=0
Pressure_i=101325
Density_i=1.17659
Energy_i=5.09815e+06
SoundSpeed_i=347.224
Velocity_j=3125.01
Velocity_j=0
Pressure_j=101325
Density_j=1.17659
Energy_j=5.09815e+06
SoundSpeed_j=347.224
res[0]=367.687
res[1]=1.15916e+06
res[2]=0
res[3]=1.90619e+09

iPoint=14
Velocity_i=3125.01
Velocity_i=0
Pressure_i=101325
Density_i=1.17659
Energy_i=5.09815e+06
SoundSpeed_i=347.224
Velocity_j=3125.01
Velocity_j=0
Pressure_j=101325
Density_j=1.17659
Energy_j=5.09815e+06
SoundSpeed_j=347.224
res[0]=735.373
res[1]=2.31832e+06
res[2]=0
res[3]=3.81237e+09

iPoint=9
Velocity_i=3125.01
Velocity_i=0
Pressure_i=101325
Density_i=1.17659
Energy_i=5.09815e+06
SoundSpeed_i=347.224
Velocity_j=3125.01
Velocity_j=0
Pressure_j=101325
Density_j=1.17659
Energy_j=5.09815e+06
SoundSpeed_j=347.224
res[0]=735.373
res[1]=2.31832e+06
res[2]=0
res[3]=3.81237e+09

iPoint=5
Velocity_i=3125.01
Velocity_i=0
Pressure_i=101325
Density_i=1.17659
Energy_i=5.09815e+06
SoundSpeed_i=347.224
Velocity_j=3125.01
Velocity_j=0
Pressure_j=101325
Density_j=1.17659
Energy_j=5.09815e+06
SoundSpeed_j=347.224
res[0]=735.373
res[1]=2.31832e+06
res[2]=0
res[3]=3.81237e+09

iPoint=2
Velocity_i=3125.01
Velocity_i=0
Pressure_i=101325
Density_i=1.17659
Energy_i=5.09815e+06
SoundSpeed_i=347.224
Velocity_j=3125.01
Velocity_j=0
Pressure_j=101325
Density_j=1.17659
Energy_j=5.09815e+06
SoundSpeed_j=347.224
res[0]=735.373
res[1]=2.31832e+06
res[2]=0
res[3]=3.81237e+09

iPoint=0
Velocity_i=3125.01
Velocity_i=0
Pressure_i=101325
Density_i=1.17659
Energy_i=5.09815e+06
SoundSpeed_i=347.224
Velocity_j=3125.01
Velocity_j=0
Pressure_j=101325
Density_j=1.17659
Energy_j=5.09815e+06
SoundSpeed_j=347.224
res[0]=367.687
res[1]=1.15916e+06
res[2]=0
res[3]=1.90619e+09

iPoint=0
Velocity_i=3125.01
Velocity_i=0
Pressure_i=101325
Density_i=1.17659
Energy_i=5.09815e+06
SoundSpeed_i=347.224
Velocity_j=3125.01
Velocity_j=0
Pressure_j=101325
Density_j=1.17659
Energy_j=5.09815e+06
SoundSpeed_j=347.224
res[0]=0
res[1]=0
res[2]=10132.5
res[3]=0

iPoint=1
Velocity_i=3125.01
Velocity_i=0
Pressure_i=101325
Density_i=1.17659
Energy_i=5.09815e+06
SoundSpeed_i=347.224
Velocity_j=3125.01
Velocity_j=0
Pressure_j=101325
Density_j=1.17659
Energy_j=5.09815e+06
SoundSpeed_j=347.224
res[0]=0
res[1]=0
res[2]=20265
res[3]=0

iPoint=3
Velocity_i=3125.01
Velocity_i=0
Pressure_i=101325
Density_i=1.17659
Energy_i=5.09815e+06
SoundSpeed_i=347.224
Velocity_j=3125.01
Velocity_j=0
Pressure_j=101325
Density_j=1.17659
Energy_j=5.09815e+06
SoundSpeed_j=347.224
res[0]=0
res[1]=0
res[2]=20265
res[3]=0

iPoint=6
Velocity_i=3125.01
Velocity_i=0
Pressure_i=101325
Density_i=1.17659
Energy_i=5.09815e+06
SoundSpeed_i=347.224
Velocity_j=3125.01
Velocity_j=0
Pressure_j=101325
Density_j=1.17659
Energy_j=5.09815e+06
SoundSpeed_j=347.224
res[0]=0
res[1]=0
res[2]=20265
res[3]=0

iPoint=10
Velocity_i=3125.01
Velocity_i=0
Pressure_i=101325
Density_i=1.17659
Energy_i=5.09815e+06
SoundSpeed_i=347.224
Velocity_j=3125.01
Velocity_j=0
Pressure_j=101325
Density_j=1.17659
Energy_j=5.09815e+06
SoundSpeed_j=347.224
res[0]=0
res[1]=0
res[2]=20265
res[3]=0

iPoint=15
Velocity_i=3125.01
Velocity_i=0
Pressure_i=101325
Density_i=1.17659
Energy_i=5.09815e+06
SoundSpeed_i=347.224
Velocity_j=3125.01
Velocity_j=0
Pressure_j=101325
Density_j=1.17659
Energy_j=5.09815e+06
SoundSpeed_j=347.224
res[0]=0
res[1]=0
res[2]=10132.5
res[3]=0
+----------------------------------------------------------------+
|  Inner_Iter|    rms[Rho]|   rms[RhoU]|   rms[RhoV]|   rms[RhoE]|
+----------------------------------------------------------------+
|           0|  -12.534131|   -9.061302|  -11.602067|   -5.782138|

----------------------------- Solver Exit -------------------------------

Maximum number of iterations reached (ITER = 1) before convergence.
+-----------------------------------------------------------------------+
|      Convergence Field     |     Value    |   Criterion  |  Converged |
+-----------------------------------------------------------------------+
|                    rms[Rho]|      -12.5341|         < -50|          No|
+-----------------------------------------------------------------------+
-------------------------------------------------------------------------
+-----------------------------------------------------------------------+
|        File Writing Summary       |              Filename             |
+-----------------------------------------------------------------------+
|SU2 ASCII restart                  |restart_flow.csv                   |
|Paraview ASCII                     |soln_volume.vtk                    |
|Paraview ASCII surface             |soln_surface.vtk                   |
+-----------------------------------------------------------------------+

------------------------- Solver Postprocessing -------------------------
Deleted CNumerics container.
Deleted CIntegration container.
Deleted CSolver container.
Deleted CIteration container.
Deleted CInterface container.
Deleted CGeometry container.
Deleted CFreeFormDefBox class.
Deleted CSurfaceMovement class.
Deleted CVolumetricMovement class.
Deleted CConfig container.
Deleted nInst container.
Deleted COutput class.
-------------------------------------------------------------------------

------------------------- Exit Success (SU2_CFD) ------------------------

