%%%%%%%%%%%%%%%%%%%%%%%%%%%%%%%%%%%%%%%%%%%%%%%%%%%%%%%%%%%%%%%%%%%%%%%%%%%%%%%%
%                                                                              %
% SU2 configuration file                                                       %
% Case description: Steady incompressible laminar flow past a heated cylinder  %
% Author: Thomas D. Economon                                                   %
% Date: 2018.06.10                                                             %
% File Version 6.2.0 "Falcon"                                                  %
%                                                                              %
%%%%%%%%%%%%%%%%%%%%%%%%%%%%%%%%%%%%%%%%%%%%%%%%%%%%%%%%%%%%%%%%%%%%%%%%%%%%%%%%

% ------------- DIRECT, ADJOINT, AND LINEARIZED PROBLEM DEFINITION ------------%
%
% Physical governing equations (EULER, NAVIER_STOKES,
%                               WAVE_EQUATION, HEAT_EQUATION, FEM_ELASTICITY,
%                               POISSON_EQUATION)                           
SOLVER= INC_NAVIER_STOKES
%
% If Navier-Stokes, kind of turbulent model (NONE, SA)
KIND_TURB_MODEL= NONE
%
% Mathematical problem (DIRECT, CONTINUOUS_ADJOINT)
MATH_PROBLEM= DISCRETE_ADJOINT
%
% Restart solution (NO, YES)
RESTART_SOL= NO

% ---------------- INCOMPRESSIBLE FLOW CONDITION DEFINITION -------------------%
%
% Density model within the incompressible flow solver.
% Options are CONSTANT (default), BOUSSINESQ, or VARIABLE. If VARIABLE,
% an appropriate fluid model must be selected.
INC_DENSITY_MODEL= VARIABLE
%
% Solve the energy equation in the incompressible flow solver
INC_ENERGY_EQUATION = YES
%
% Initial density for incompressible flows (1.2886 kg/m^3 by default)
INC_DENSITY_INIT= 0.000210322
%
% Initial velocity for incompressible flows (1.0,0,0 m/s by default)
INC_VELOCITY_INIT= ( 3.40297, 0.0, 0.0 )
%
% Initial temperature for incompressible flows that include the
% energy equation (288.15 K by default). Value is ignored if
% INC_ENERGY_EQUATION is false.
INC_TEMPERATURE_INIT= 288.15

% ---- IDEAL GAS, POLYTROPIC, VAN DER WAALS AND PENG ROBINSON CONSTANTS -------%
%
% Fluid model (STANDARD_AIR, IDEAL_GAS, VW_GAS, PR_GAS,
%              CONSTANT_DENSITY, INC_IDEAL_GAS)
FLUID_MODEL= INC_IDEAL_GAS
%
% Specific heat at constant pressure, Cp (1004.703 J/kg*K (air)).
% Incompressible fluids with energy eqn. only (CONSTANT_DENSITY, INC_IDEAL_GAS).
SPECIFIC_HEAT_CP= 1004.703
%
% Molecular weight for an incompressible ideal gas (28.96 g/mol (air) default)
% Incompressible fluids with energy eqn. only (CONSTANT_DENSITY, INC_IDEAL_GAS).
MOLECULAR_WEIGHT= 28.96

% --------------------------- VISCOSITY MODEL ---------------------------------%
%
% Viscosity model (SUTHERLAND, CONSTANT_VISCOSITY).
VISCOSITY_MODEL= SUTHERLAND
%
% Molecular Viscosity that would be constant (1.716E-5 by default)
MU_CONSTANT= 1.7893e-05
%
% Sutherland Viscosity Ref (1.716E-5 default value for AIR SI)
MU_REF= 1.716E-5
%
% Sutherland Temperature Ref (273.15 K default value for AIR SI)
MU_T_REF= 273.15
%
% Sutherland constant (110.4 default value for AIR SI)
SUTHERLAND_CONSTANT= 110.4

% --------------------------- THERMAL CONDUCTIVITY MODEL ----------------------%
%
% Conductivity model (CONSTANT_CONDUCTIVITY, CONSTANT_PRANDTL).
CONDUCTIVITY_MODEL= CONSTANT_PRANDTL
%
% Molecular Thermal Conductivity that would be constant (0.0257 by default)
KT_CONSTANT= 0.0257
%
% Laminar Prandtl number (0.72 (air), only for CONSTANT_PRANDTL)
PRANDTL_LAM= 0.72
%
% Turbulent Prandtl number (0.9 (air), only for CONSTANT_PRANDTL)
PRANDTL_TURB= 0.90

% ---------------------- REFERENCE VALUE DEFINITION ---------------------------%
%
% Reference origin for moment computation
REF_ORIGIN_MOMENT_X = 0.25
REF_ORIGIN_MOMENT_Y = 0.00
REF_ORIGIN_MOMENT_Z = 0.00
%
% Reference length for pitching, rolling, and yawing non-dimensional moment
REF_LENGTH= 1.0
%
% Reference area for force coefficients (0 implies automatic calculation)
REF_AREA= 1.0

% -------------------- BOUNDARY CONDITION DEFINITION --------------------------%
%
% Navier-Stokes wall boundary marker(s) (NONE = no marker)
MARKER_ISOTHERMAL= ( cylinder, 1000.0 )
%
% Farfield boundary marker(s) (NONE = no marker)
MARKER_FAR= ( farfield )
%
% Marker(s) of the surface to be plotted or designed
MARKER_PLOTTING= ( cylinder )
%
% Marker(s) of the surface where the functional (Cd, Cl, etc.) will be evaluated
MARKER_MONITORING= ( cylinder )

% ------------- COMMON PARAMETERS DEFINING THE NUMERICAL METHOD ---------------%
%
% Numerical method for spatial gradients (GREEN_GAUSS, WEIGHTED_LEAST_SQUARES)
NUM_METHOD_GRAD= GREEN_GAUSS
%
% Courant-Friedrichs-Lewy condition of the finest grid
CFL_NUMBER= 1000.0
%
% Adaptive CFL number (NO, YES)
CFL_ADAPT= NO
%
% Parameters of the adaptive CFL number (factor down, factor up, CFL min value,
%                                        CFL max value )
CFL_ADAPT_PARAM= ( 1.5, 0.5, 10.0, 10000.0 )
%
% Runge-Kutta alpha coefficients
RK_ALPHA_COEFF= ( 0.66667, 0.66667, 1.000000 )
%
% Number of total iterations
ITER= 1000
%
% Objective function in gradient evaluation   (DRAG, LIFT, SIDEFORCE, MOMENT_X,
%                                             MOMENT_Y, MOMENT_Z, EFFICIENCY,
%                                             EQUIVALENT_AREA, NEARFIELD_PRESSURE,
%                                             FORCE_X, FORCE_Y, FORCE_Z, THRUST,
%                                             TORQUE, TOTAL_HEATFLUX,
%                                             MAXIMUM_HEATFLUX, INVERSE_DESIGN_PRESSURE,
%                                             INVERSE_DESIGN_HEATFLUX, SURFACE_TOTAL_PRESSURE,
%                                             SURFACE_MASSFLOW, SURFACE_STATIC_PRESSURE, SURFACE_MACH)
% For a weighted sum of objectives: separate by commas, add OBJECTIVE_WEIGHT and MARKER_MONITORING in matching order.
OBJECTIVE_FUNCTION= TOTAL_HEATFLUX
%
% List of weighting values when using more than one OBJECTIVE_FUNCTION. Separate by commas and match with MARKER_MONITORING.
OBJECTIVE_WEIGHT = 1.0

% -------------------------- MULTIGRID PARAMETERS -----------------------------%
%
% Multi-Grid Levels (0 = no multi-grid)
MGLEVEL= 0
%
% Multi-grid cycle (V_CYCLE, W_CYCLE, FULLMG_CYCLE)
MGCYCLE= V_CYCLE
%
% Multi-grid pre-smoothing level
MG_PRE_SMOOTH= ( 1, 1, 1, 1 )
%
% Multi-grid post-smoothing level
MG_POST_SMOOTH= ( 0, 0, 0, 0 )
%
% Jacobi implicit smoothing of the correction
MG_CORRECTION_SMOOTH= ( 0, 0, 0, 0 )
%
% Damping factor for the residual restriction
MG_DAMP_RESTRICTION= 0.8
%
% Damping factor for the correction prolongation
MG_DAMP_PROLONGATION= 0.8

% ----------- SLOPE LIMITER AND DISSIPATION SENSOR DEFINITION -----------------%
%
% Coefficient for the Venkat's limiter (upwind scheme). A larger values decrease
%             the extent of limiting, values approaching zero cause
%             lower-order approximation to the solution (0.05 by default)
VENKAT_LIMITER_COEFF= 0.05
%
% Coefficient for the adjoint sharp edges limiter (3.0 by default).
ADJ_SHARP_LIMITER_COEFF= 3.0
%
% Freeze the value of the limiter after a number of iterations
LIMITER_ITER= 999999
%
% 1st order artificial dissipation coefficients for
%     the Lax–Friedrichs method ( 0.15 by default )
LAX_SENSOR_COEFF= 0.15
%
% 2nd and 4th order artificial dissipation coefficients for
%     the JST method ( 0.5, 0.02 by default )
JST_SENSOR_COEFF= ( 0.5, 0.02 )
%
% 1st order artificial dissipation coefficients for
%     the adjoint Lax–Friedrichs method ( 0.15 by default )
ADJ_LAX_SENSOR_COEFF= 0.15
%
% 2nd, and 4th order artificial dissipation coefficients for
%     the adjoint JST method ( 0.5, 0.02 by default )
ADJ_JST_SENSOR_COEFF= ( 0.5, 0.02 )

% ------------------------ LINEAR SOLVER DEFINITION ---------------------------%
%
% Linear solver or smoother for implicit formulations (BCGSTAB, FGMRES, SMOOTHER)
LINEAR_SOLVER= FGMRES
%
% Preconditioner of the Krylov linear solver (ILU, LU_SGS, LINELET, JACOBI)
LINEAR_SOLVER_PREC= ILU
%
% Linael solver ILU preconditioner fill-in level (0 by default)
LINEAR_SOLVER_ILU_FILL_IN= 0
%
% Minimum error of the linear solver for implicit formulations
LINEAR_SOLVER_ERROR= 1E-15
%
% Max number of iterations of the linear solver for the implicit formulation
LINEAR_SOLVER_ITER= 10

% -------------------- FLOW NUMERICAL METHOD DEFINITION -----------------------%
%
% Convective numerical method (JST, LAX-FRIEDRICH, CUSP, ROE, AUSM, HLLC,
%                              TURKEL_PREC, MSW)
CONV_NUM_METHOD_FLOW= FDS
%
% Monotonic Upwind Scheme for Conservation Laws (TVD) in the flow equations.
%           Required for 2nd order upwind schemes (NO, YES)
MUSCL_FLOW= YES
%
% Slope limiter (NONE, VENKATAKRISHNAN, VENKATAKRISHNAN_WANG,
%                BARTH_JESPERSEN, VAN_ALBADA_EDGE)
SLOPE_LIMITER_FLOW= NONE
%
% Time discretization (RUNGE-KUTTA_EXPLICIT, EULER_IMPLICIT, EULER_EXPLICIT)
TIME_DISCRE_FLOW= EULER_IMPLICIT

% --------------------------- CONVERGENCE PARAMETERS --------------------------%
%
% Convergence criteria (CAUCHY, RESIDUAL)
CONV_CRITERIA= RESIDUAL
%
%
% Min value of the residual (log10 of the residual)
CONV_RESIDUAL_MINVAL= -16
%
% Start convergence criteria at iteration number
CONV_STARTITER= 10
%
% Number of elements to apply the criteria
CONV_CAUCHY_ELEMS= 100
%
% Epsilon to control the series convergence
CONV_CAUCHY_EPS= 1E-6
%

% ------------------------- INPUT/OUTPUT INFORMATION --------------------------%
%
% Mesh input file
MESH_FILENAME= mesh_cylinder_lam_ffd.su2
%
% Mesh input file format (SU2, CGNS, NETCDF_ASCII)
MESH_FORMAT= SU2
%
% Restart flow input file
SOLUTION_FILENAME= solution_flow.dat
%
% Restart adjoint input file
SOLUTION_ADJ_FILENAME= solution_adj.dat
%
% Output file format (TECPLOT, TECPLOT_BINARY, PARAVIEW,
%                     FIELDVIEW, FIELDVIEW_BINARY)
TABULAR_FORMAT= CSV
%
% Output file convergence history (w/o extension)
CONV_FILENAME= history
%
% Output file with the forces breakdown
BREAKDOWN_FILENAME= forces_breakdown.dat
%
% Output file restart flow
RESTART_FILENAME= restart_flow.dat
%
% Output file restart adjoint
RESTART_ADJ_FILENAME= restart_adj.dat
%
% Output file flow (w/o extension) variables
VOLUME_FILENAME= flow
%
% Output file adjoint (w/o extension) variables
VOLUME_ADJ_FILENAME= adjoint
%
% Output Objective function
VALUE_OBJFUNC_FILENAME= of_eval.dat
%
% Output objective function gradient (using continuous adjoint)
GRAD_OBJFUNC_FILENAME= of_grad.dat
%
% Output file surface flow coefficient (w/o extension)
SURFACE_FILENAME= surface_flow
%
% Output file surface adjoint coefficient (w/o extension)
SURFACE_ADJ_FILENAME= surface_adjoint
%
% Writing solution file frequency
WRT_SOL_FREQ= 250
%
% Writing convergence history frequency
WRT_CON_FREQ= 1
%
% Screen output 
SCREEN_OUTPUT= (INNER_ITER, RMS_ADJ_PRESSURE, RMS_ADJ_TEMPERATURE, SENS_PRESS, SENS_AOA)
% ----------------------- DESIGN VARIABLE PARAMETERS --------------------------%
%
% Kind of deformation (NO_DEFORMATION, TRANSLATION, ROTATION, SCALE,
%                      FFD_SETTING, FFD_NACELLE
%                      FFD_CONTROL_POINT, FFD_CAMBER, FFD_THICKNESS, FFD_TWIST
%                      FFD_CONTROL_POINT_2D, FFD_CAMBER_2D, FFD_THICKNESS_2D, FFD_TWIST_2D,
%                      HICKS_HENNE, SURFACE_BUMP)
DV_KIND= FFD_CONTROL_POINT_2D
%
% Marker of the surface in which we are going apply the shape deformation
DV_MARKER= ( cylinder )
%
% Parameters of the shape deformation
% - NO_DEFORMATION ( 1.0 )
% - TRANSLATION ( x_Disp, y_Disp, z_Disp ), as a unit vector
% - ROTATION ( x_Orig, y_Orig, z_Orig, x_End, y_End, z_End )
% - SCALE ( 1.0 )
% - ANGLE_OF_ATTACK ( 1.0 )
% - FFD_SETTING ( 1.0 )
% - FFD_CONTROL_POINT ( FFD_BoxTag, i_Ind, j_Ind, k_Ind, x_Disp, y_Disp, z_Disp )
% - FFD_NACELLE ( FFD_BoxTag, rho_Ind, theta_Ind, phi_Ind, rho_Disp, phi_Disp )
% - FFD_GULL ( FFD_BoxTag, j_Ind )
% - FFD_ANGLE_OF_ATTACK ( FFD_BoxTag, 1.0 )
% - FFD_CAMBER ( FFD_BoxTag, i_Ind, j_Ind )
% - FFD_THICKNESS ( FFD_BoxTag, i_Ind, j_Ind )
% - FFD_TWIST ( FFD_BoxTag, j_Ind, x_Orig, y_Orig, z_Orig, x_End, y_End, z_End )
% - FFD_CONTROL_POINT_2D ( FFD_BoxTag, i_Ind, j_Ind, x_Disp, y_Disp )
% - FFD_CAMBER_2D ( FFD_BoxTag, i_Ind )
% - FFD_THICKNESS_2D ( FFD_BoxTag, i_Ind )
% - FFD_TWIST_2D ( FFD_BoxTag, x_Orig, y_Orig )
% - HICKS_HENNE ( Lower Surface (0)/Upper Surface (1)/Only one Surface (2), x_Loc )
% - SURFACE_BUMP ( x_Start, x_End, x_Loc )
DV_PARAM= ( MAIN_BOX, 12, 1, 0.0, 1.0 )
%
% Value of the shape deformation
DV_VALUE= 0.1

% ------------------------ GRID DEFORMATION PARAMETERS ------------------------%
%
% Linear solver or smoother for implicit formulations (FGMRES, RESTARTED_FGMRES, BCGSTAB)
DEFORM_LINEAR_SOLVER= FGMRES
%
% Number of smoothing iterations for mesh deformation
DEFORM_LINEAR_SOLVER_ITER= 1000
%
% Number of nonlinear deformation iterations (surface deformation increments)
DEFORM_NONLINEAR_ITER= 1
%
% Print the residuals during mesh deformation to the console (YES, NO)
DEFORM_CONSOLE_OUTPUT= YES
%
% Minimum residual criteria for the linear solver convergence of grid deformation
DEFORM_LINEAR_SOLVER_ERROR= 1E-14
%
% Type of element stiffness imposed for FEA mesh deformation (INVERSE_VOLUME,
%                                          WALL_DISTANCE, CONSTANT_STIFFNESS)
DEFORM_STIFFNESS_TYPE= INVERSE_VOLUME

% -------------------- FREE-FORM DEFORMATION PARAMETERS -----------------------%
%
% Tolerance of the Free-Form Deformation point inversion
FFD_TOLERANCE= 1E-15
%
% Maximum number of iterations in the Free-Form Deformation point inversion
FFD_ITERATIONS= 500
%
% FFD box definition: 3D case (FFD_BoxTag, X1, Y1, Z1, X2, Y2, Z2, X3, Y3, Z3, X4, Y4, Z4,
%                              X5, Y5, Z5, X6, Y6, Z6, X7, Y7, Z7, X8, Y8, Z8)
%                     2D case (FFD_BoxTag, X1, Y1, 0.0, X2, Y2, 0.0, X3, Y3, 0.0, X4, Y4, 0.0,
%                              0.0, 0.0, 0.0, 0.0, 0.0, 0.0, 0.0, 0.0, 0.0, 0.0, 0.0, 0.0)
FFD_DEFINITION= (MAIN_BOX, -0.1, -0.6, 0.0, 1.1, -0.6, 0.0, 1.1, 0.6, 0.0, -0.1, 0.6, 0.0, 0.0, 0.0, 0.0, 0.0, 0.0, 0.0, 0.0, 0.0, 0.0, 0.0, 0.0, 0.0)
%
% FFD box degree: 3D case (x_degree, y_degree, z_degree)
%                 2D case (x_degree, y_degree, 0)
FFD_DEGREE= ( 24, 1, 0)
%
% Surface continuity at the intersection with the FFD (1ST_DERIVATIVE, 2ND_DERIVATIVE)
FFD_CONTINUITY= 2ND_DERIVATIVE

% ----------------------- GEOMETRY EVALUATION PARAMETERS ----------------------%
%
% Marker(s) of the surface where geometrical based function will be evaluated
GEO_MARKER= ( cylinder )
%
% Description of the geometry to be analyzed (AIRFOIL, WING, FUSELAGE, NACELLE)
GEO_DESCRIPTION= AIRFOIL
%
% Coordinate of the stations to be analyzed
GEO_LOCATION_STATIONS= (0.0, 0.5, 1.0)
%
% Geometrical bounds (Y coordinate) for the wing geometry analysis or
% fuselage evaluation (X coordinate), or nacelle evaluation (theta coordinate)
GEO_BOUNDS= (1.5, 3.5)
%
% Location of the nacelle axis (point coordinates and axis)
%GEO_NACELLE_LOCATION= (0.0, 0.0, 0.0, 1.0, 0.0, 0.0)
%
% Plot loads and Cp distributions on each airfoil section
GEO_PLOT_STATIONS= NO
%
% Number of section cuts to make when calculating wing geometry
GEO_NUMBER_STATIONS= 25
%
% Geometrical evaluation mode (FUNCTION, GRADIENT)
GEO_MODE= FUNCTION

% --------------------- OPTIMAL SHAPE DESIGN DEFINITION -----------------------%
%
% Available flow based objective functions or constraint functions
%    DRAG, LIFT, SIDEFORCE, EFFICIENCY, BUFFET, 
%    FORCE_X, FORCE_Y, FORCE_Z,
%    MOMENT_X, MOMENT_Y, MOMENT_Z,
%    THRUST, TORQUE, FIGURE_OF_MERIT,
%    EQUIVALENT_AREA, NEARFIELD_PRESSURE,
%    TOTAL_HEATFLUX, MAXIMUM_HEATFLUX,
%    INVERSE_DESIGN_PRESSURE, INVERSE_DESIGN_HEATFLUX,
%    SURFACE_TOTAL_PRESSURE, SURFACE_MASSFLOW
%    SURFACE_STATIC_PRESSURE, SURFACE_MACH
%
% Available geometrical based objective functions or constraint functions
%    AIRFOIL_AREA, AIRFOIL_THICKNESS, AIRFOIL_CHORD, AIRFOIL_TOC, AIRFOIL_AOA,
%    WING_VOLUME, WING_MIN_THICKNESS, WING_MAX_THICKNESS, WING_MAX_CHORD, WING_MIN_TOC, WING_MAX_TWIST, WING_MAX_CURVATURE, WING_MAX_DIHEDRAL
%    STATION#_WIDTH, STATION#_AREA, STATION#_THICKNESS, STATION#_CHORD, STATION#_TOC,
%    STATION#_TWIST (where # is the index of the station defined in GEO_LOCATION_STATIONS)
%
% Available design variables
% 2D Design variables
%    FFD_CONTROL_POINT_2D   (  19, Scale | Mark. List | FFD_BoxTag, i_Ind, j_Ind, x_Mov, y_Mov )
%    FFD_CAMBER_2D          (  20, Scale | Mark. List | FFD_BoxTag, i_Ind )
%    FFD_THICKNESS_2D       (  21, Scale | Mark. List | FFD_BoxTag, i_Ind )
%    FFD_TWIST_2D           (  22, Scale | Mark. List | FFD_BoxTag, x_Orig, y_Orig )
%    HICKS_HENNE            (  30, Scale | Mark. List | Lower(0)/Upper(1) side, x_Loc )
%    ANGLE_OF_ATTACK        ( 101, Scale | Mark. List | 1.0 )
%
% 3D Design variables
%    FFD_CONTROL_POINT      (  11, Scale | Mark. List | FFD_BoxTag, i_Ind, j_Ind, k_Ind, x_Mov, y_Mov, z_Mov )
%    FFD_NACELLE            (  12, Scale | Mark. List | FFD_BoxTag, rho_Ind, theta_Ind, phi_Ind, rho_Mov, phi_Mov )
%    FFD_GULL               (  13, Scale | Mark. List | FFD_BoxTag, j_Ind )
%    FFD_CAMBER             (  14, Scale | Mark. List | FFD_BoxTag, i_Ind, j_Ind )
%    FFD_TWIST              (  15, Scale | Mark. List | FFD_BoxTag, j_Ind, x_Orig, y_Orig, z_Orig, x_End, y_End, z_End )
%    FFD_THICKNESS          (  16, Scale | Mark. List | FFD_BoxTag, i_Ind, j_Ind )
%    FFD_ROTATION           (  18, Scale | Mark. List | FFD_BoxTag, x_Axis, y_Axis, z_Axis, x_Turn, y_Turn, z_Turn )
%    FFD_ANGLE_OF_ATTACK    (  24, Scale | Mark. List | FFD_BoxTag, 1.0 )
%
% Global design variables
%    TRANSLATION            (   1, Scale | Mark. List | x_Disp, y_Disp, z_Disp )
%    ROTATION               (   2, Scale | Mark. List | x_Axis, y_Axis, z_Axis, x_Turn, y_Turn, z_Turn )
%
% Definition of multipoint design problems, this option should be combined with the
% the prefix MULTIPOINT in the objective function or constraint (e.g. MULTIPOINT_DRAG, MULTIPOINT_LIFT, etc.)
MULTIPOINT_MACH_NUMBER= (0.79, 0.8, 0.81)
MULTIPOINT_AOA= (1.25, 1.25, 1.25)
MULTIPOINT_SIDESLIP_ANGLE= (0.0, 0.0, 0.0)
MULTIPOINT_TARGET_CL= (0.8, 0.8, 0.8)
MULTIPOINT_REYNOLDS_NUMBER= (1E6, 1E6, 1E6)
MULTIPOINT_FREESTREAM_PRESSURE= (101325.0, 101325.0, 101325.0)
MULTIPOINT_FREESTREAM_TEMPERATURE= (288.15, 288.15, 288.15)
MULTIPOINT_WEIGHT= (0.33333, 0.33333, 0.33333)
%
% Optimization objective function with scaling factor, separated by semicolons.
% To include quadratic penalty function: use OPT_CONSTRAINT option syntax within the OPT_OBJECTIVE list.
% ex= Objective * Scale
%OPT_OBJECTIVE= TOTAL_HEATFLUX * 1e-5
OPT_OBJECTIVE= DRAG * 1.0
%
% Optimization constraint functions with pushing factors (affects its value, not the gradient  in the python scripts), separated by semicolons
% ex= (Objective = Value ) * Scale, use '>','<','='
%OPT_CONSTRAINT= ( DRAG < 1.68 ) * 1.0; ( AIRFOIL_CHORD < 1.01 ) * 1.0
%OPT_CONSTRAINT= ( AIRFOIL_CHORD < 1.01 ) * 1.0; ( AIRFOIL_AREA > 0.785422 ) * 1.0
%OPT_CONSTRAINT= ( AIRFOIL_CHORD < 1.01 ) * 1.0; ( AIRFOIL_THICKNESS > 0.12 ) * 1.0
%OPT_CONSTRAINT= ( AIRFOIL_THICKNESS > 0.12 ) * 1e-1
%OPT_CONSTRAINT= ( AIRFOIL_THICKNESS > 1.0 ) * 1e-1
%OPT_CONSTRAINT= ( AIRFOIL_AREA > 0.785422 ) * 1e-1
%OPT_CONSTRAINT= NONE
OPT_CONSTRAINT= ( DRAG < 2.06 ) * 1.0
%
% NACA 0012 Area: 0.0816925 m^2, Thickness: 0.120011 m
%
% SU2_GEO output
% Station 1. ZCoord: 0 m, Area: 0.785422 m^2, Thickness: 1 m, 
% Chord: 1 m, LE radius: 2 1/m, ToC: 1, Alpha: 0.9 deg.
%
%
% Factor to reduce the norm of the gradient (affects the objective function and gradient in the python scripts)
% In general, a norm of the gradient ~1E-6 is desired.
OPT_GRADIENT_FACTOR= 1.0
%
% Factor to relax or accelerate the optimizer convergence (affects the line search in SU2_DEF)
% In general, surface deformations of 0.01'' or 0.0001m are desirable
OPT_RELAX_FACTOR= 1.0
%
% Maximum number of iterations
OPT_ITERATIONS= 100
%
% Requested accuracy
OPT_ACCURACY= 1E-10
%
% Optimization bound (bounds the line search in SU2_DEF)
OPT_LINE_SEARCH_BOUND= 1E6
%
% Upper bound for each design variable (bound in the python optimizer)
OPT_BOUND_UPPER= 0.5
%
% Lower bound for each design variable (bound in the python optimizer)
OPT_BOUND_LOWER= -0.5
%
% Finite difference step size for python scripts (0.001 default, recommended
%                                                                                                 0.001 x REF_LENGTH)
FIN_DIFF_STEP = 1e-3
%
% Optimization design variables, separated by semicolons
DEFINITION_DV= ( 19, 1.0 | cylinder | MAIN_BOX, 0, 0, 0.0, 1.0 ); ( 19, 1.0 | cylinder | MAIN_BOX, 1, 0, 0.0, 1.0 ); ( 19, 1.0 | cylinder | MAIN_BOX, 2, 0, 0.0, 1.0 ); ( 19, 1.0 | cylinder | MAIN_BOX, 3, 0, 0.0, 1.0 ); ( 19, 1.0 | cylinder | MAIN_BOX, 4, 0, 0.0, 1.0 ); ( 19, 1.0 | cylinder | MAIN_BOX, 5, 0, 0.0, 1.0 ); ( 19, 1.0 | cylinder | MAIN_BOX, 6, 0, 0.0, 1.0 ); ( 19, 1.0 | cylinder | MAIN_
