%%%%%%%%%%%%%%%%%%%%%%%%%%%%%%%%%%%%%%%%%%%%%%%%%%%%%%%%%%%%%%%%%%%%%%%%%%%%%%%%
%                                                                              %
% SU2 configuration file                                                       %
% Case description: Steady incompressible laminar flow past a heated cylinder  %
% Author: Thomas D. Economon                                                   %
% Date: 2018.06.10                                                             %
% File Version 8.0.0 "Harrier"                                                 %
%                                                                              %
%%%%%%%%%%%%%%%%%%%%%%%%%%%%%%%%%%%%%%%%%%%%%%%%%%%%%%%%%%%%%%%%%%%%%%%%%%%%%%%%

% ------------- DIRECT, ADJOINT, AND LINEARIZED PROBLEM DEFINITION ------------%
%
SOLVER= INC_NAVIER_STOKES
KIND_TURB_MODEL= NONE
MATH_PROBLEM= DISCRETE_ADJOINT
RESTART_SOL= NO

% ---------------- INCOMPRESSIBLE FLOW CONDITION DEFINITION -------------------%
%
INC_DENSITY_MODEL= VARIABLE
INC_ENERGY_EQUATION = YES
INC_DENSITY_INIT= 0.000210322
INC_VELOCITY_INIT= ( 3.40297, 0.0, 0.0 )
INC_TEMPERATURE_INIT= 288.15

% ---- IDEAL GAS, POLYTROPIC, VAN DER WAALS AND PENG ROBINSON CONSTANTS -------%
%
FLUID_MODEL= INC_IDEAL_GAS
SPECIFIC_HEAT_CP= 1004.703
MOLECULAR_WEIGHT= 28.96

% --------------------------- VISCOSITY MODEL ---------------------------------%
%
VISCOSITY_MODEL= SUTHERLAND
MU_CONSTANT= 1.7893e-05
MU_REF= 1.716E-5
MU_T_REF= 273.15
SUTHERLAND_CONSTANT= 110.4

% --------------------------- THERMAL CONDUCTIVITY MODEL ----------------------%
%
CONDUCTIVITY_MODEL= CONSTANT_PRANDTL
THERMAL_CONDUCTIVITY_CONSTANT= 0.0257
PRANDTL_LAM= 0.72
PRANDTL_TURB= 0.90

% ---------------------- REFERENCE VALUE DEFINITION ---------------------------%
%
REF_ORIGIN_MOMENT_X = 0.25
REF_ORIGIN_MOMENT_Y = 0.00
REF_ORIGIN_MOMENT_Z = 0.00
REF_LENGTH= 1.0
REF_AREA= 1.0

% -------------------- BOUNDARY CONDITION DEFINITION --------------------------%
%
MARKER_ISOTHERMAL= ( cylinder, 1000.0 )
MARKER_FAR= ( farfield )
MARKER_PLOTTING= ( cylinder )
MARKER_MONITORING= ( cylinder )

% ------------- COMMON PARAMETERS DEFINING THE NUMERICAL METHOD ---------------%
%
NUM_METHOD_GRAD= GREEN_GAUSS
CFL_NUMBER= 1000.0
CFL_ADAPT= NO
CFL_ADAPT_PARAM= ( 1.5, 0.5, 10.0, 10000.0 )
RK_ALPHA_COEFF= ( 0.66667, 0.66667, 1.000000 )
ITER= 1000
OBJECTIVE_FUNCTION= TOTAL_HEATFLUX
OBJECTIVE_WEIGHT = 1.0

% ----------- SLOPE LIMITER AND DISSIPATION SENSOR DEFINITION -----------------%
%
VENKAT_LIMITER_COEFF= 0.05
ADJ_SHARP_LIMITER_COEFF= 3.0
LIMITER_ITER= 999999
LAX_SENSOR_COEFF= 0.15
JST_SENSOR_COEFF= ( 0.5, 0.02 )
ADJ_LAX_SENSOR_COEFF= 0.15
ADJ_JST_SENSOR_COEFF= ( 0.5, 0.02 )

% ------------------------ LINEAR SOLVER DEFINITION ---------------------------%
%
LINEAR_SOLVER= FGMRES
LINEAR_SOLVER_PREC= ILU
LINEAR_SOLVER_ILU_FILL_IN= 0
LINEAR_SOLVER_ERROR= 1E-15
LINEAR_SOLVER_ITER= 10

% -------------------- FLOW NUMERICAL METHOD DEFINITION -----------------------%
%
CONV_NUM_METHOD_FLOW= FDS
MUSCL_FLOW= YES
SLOPE_LIMITER_FLOW= NONE
TIME_DISCRE_FLOW= EULER_IMPLICIT

% --------------------------- CONVERGENCE PARAMETERS --------------------------%
%
CONV_RESIDUAL_MINVAL= -16
CONV_STARTITER= 10
CONV_CAUCHY_ELEMS= 100
CONV_CAUCHY_EPS= 1E-6

% ------------------------- INPUT/OUTPUT INFORMATION --------------------------%
%
MESH_FILENAME= mesh_cylinder_lam_ffd.su2
MESH_FORMAT= SU2
SOLUTION_FILENAME= solution_flow.dat
SOLUTION_ADJ_FILENAME= solution_adj.dat
TABULAR_FORMAT= CSV
CONV_FILENAME= history
BREAKDOWN_FILENAME= forces_breakdown.dat
RESTART_FILENAME= restart_flow.dat
RESTART_ADJ_FILENAME= restart_adj.dat
VOLUME_FILENAME= flow
VOLUME_ADJ_FILENAME= adjoint
VALUE_OBJFUNC_FILENAME= of_eval.dat
GRAD_OBJFUNC_FILENAME= of_grad.dat
SURFACE_FILENAME= surface_flow
SURFACE_ADJ_FILENAME= surface_adjoint
OUTPUT_WRT_FREQ= 250
SCREEN_OUTPUT= (INNER_ITER, RMS_ADJ_PRESSURE, RMS_ADJ_TEMPERATURE, SENS_PRESS, SENS_AOA)

% ----------------------- DESIGN VARIABLE PARAMETERS --------------------------%
%
DV_KIND= FFD_CONTROL_POINT_2D
DV_MARKER= ( cylinder )
DV_PARAM= ( MAIN_BOX, 12, 1, 0.0, 1.0 )
DV_VALUE= 0.1

% ------------------------ GRID DEFORMATION PARAMETERS ------------------------%
%
DEFORM_LINEAR_SOLVER= FGMRES
DEFORM_LINEAR_SOLVER_ITER= 1000
DEFORM_NONLINEAR_ITER= 1
DEFORM_CONSOLE_OUTPUT= YES
DEFORM_LINEAR_SOLVER_ERROR= 1E-14
DEFORM_STIFFNESS_TYPE= INVERSE_VOLUME

% -------------------- FREE-FORM DEFORMATION PARAMETERS -----------------------%
%
FFD_TOLERANCE= 1E-15
FFD_ITERATIONS= 500
FFD_DEFINITION= (MAIN_BOX, -0.1, -0.6, 0.0, 1.1, -0.6, 0.0, 1.1, 0.6, 0.0, -0.1, 0.6, 0.0, 0.0, 0.0, 0.0, 0.0, 0.0, 0.0, 0.0, 0.0, 0.0, 0.0, 0.0, 0.0)
FFD_DEGREE= ( 24, 1, 0)
FFD_CONTINUITY= 2ND_DERIVATIVE

% ----------------------- GEOMETRY EVALUATION PARAMETERS ----------------------%
%
GEO_MARKER= ( cylinder )
GEO_DESCRIPTION= AIRFOIL
GEO_LOCATION_STATIONS= (0.0, 0.5, 1.0)
GEO_BOUNDS= (1.5, 3.5)
GEO_PLOT_STATIONS= NO
GEO_NUMBER_STATIONS= 25
GEO_MODE= FUNCTION

% --------------------- OPTIMAL SHAPE DESIGN DEFINITION -----------------------%
%
MULTIPOINT_MACH_NUMBER= (0.79, 0.8, 0.81)
MULTIPOINT_AOA= (1.25, 1.25, 1.25)
MULTIPOINT_SIDESLIP_ANGLE= (0.0, 0.0, 0.0)
MULTIPOINT_TARGET_CL= (0.8, 0.8, 0.8)
MULTIPOINT_REYNOLDS_NUMBER= (1E6, 1E6, 1E6)
MULTIPOINT_FREESTREAM_PRESSURE= (101325.0, 101325.0, 101325.0)
MULTIPOINT_FREESTREAM_TEMPERATURE= (288.15, 288.15, 288.15)
MULTIPOINT_WEIGHT= (0.33333, 0.33333, 0.33333)
%
OPT_OBJECTIVE= DRAG * 1.0
OPT_CONSTRAINT= ( DRAG < 2.06 ) * 1.0
%
% NACA 0012 Area: 0.0816925 m^2, Thickness: 0.120011 m
%
% SU2_GEO output
% Station 1. ZCoord: 0 m, Area: 0.785422 m^2, Thickness: 1 m, 
% Chord: 1 m, LE radius: 2 1/m, ToC: 1, Alpha: 0.9 deg.
%
OPT_RELAX_FACTOR= 1.0
OPT_ITERATIONS= 100
OPT_ACCURACY= 1E-10
%
OPT_LINE_SEARCH_BOUND= 1E6
OPT_BOUND_UPPER= 0.5
OPT_BOUND_LOWER= -0.5
FIN_DIFF_STEP = 1e-3
DEFINITION_DV= ( 19, 1.0 | cylinder | MAIN_BOX, 0, 0, 0.0, 1.0 ); ( 19, 1.0 | cylinder | MAIN_BOX, 1, 0, 0.0, 1.0 ); ( 19, 1.0 | cylinder | MAIN_BOX, 2, 0, 0.0, 1.0 ); ( 19, 1.0 | cylinder | MAIN_BOX, 3, 0, 0.0, 1.0 ); ( 19, 1.0 | cylinder | MAIN_BOX, 4, 0, 0.0, 1.0 ); ( 19, 1.0 | cylinder | MAIN_BOX, 5, 0, 0.0, 1.0 ); ( 19, 1.0 | cylinder | MAIN_BOX, 6, 0, 0.0, 1.0 ); ( 19, 1.0 | cylinder | MAIN_
