

% ------------- DIRECT, ADJOINT, AND LINEARIZED PROBLEM DEFINITION ------------%

SOLVER= INC_NAVIER_STOKES
KIND_TURB_MODEL= NONE

MARKER_ANALYZE= (outlet)
MARKER_ANALYZE_AVERAGE= AREA

MARKER_MONITORING= ( NONE )
MARKER_PLOTTING= ( NONE )

WRT_ZONE_HIST= YES

%SCREEN_OUTPUT= INNER_ITER WALL_TIME RMS_PRESSURE RMS_VELOCITY-X RMS_VELOCITY-Y RMS_TKE RMS_DISSIPATION LINSOL_ITER LINSOL_RESIDUAL RMS_ADJ_PRESSURE RMS_ADJ_VELOCITY-X RMS_ADJ_VELOCITY-Y

SCREEN_OUTPUT= INNER_ITER WALL_TIME RMS_ADJ_PRESSURE RMS_ADJ_VELOCITY-X RMS_ADJ_VELOCITY-Y RMS_ADJ_ProgressVariable RMS_ADJ_EnthalpyTot RMS_ADJ_Y-CO RMS_ADJ_Y-NOx_tot

HISTORY_OUTPUT= RMS_RES AERO_COEFF FLOW_COEFF FLOW_COEFF_SURF

VOLUME_OUTPUT= SOLUTION PRIMITIVE SOURCE RESIDUAL LOOKUP

OUTPUT_FILES= ( RESTART_ASCII)

INNER_ITER= 1

% -------------------- BOUNDARY CONDITION DEFINITION --------------------------%

MARKER_SYM= ( symmetry_ym, symmetry_yp )

MARKER_ISOTHERMAL= ( wall_burner, 450.0 )

INLET_MATCHING_TOLERANCE= 1e-5

INC_INLET_TYPE= VELOCITY_INLET

MARKER_INLET= (inlet, 300.0, 0.4, 1.0, 0.0, 0.0)
MARKER_INLET_SPECIES= (inlet, 0.0, 0.0, 0.0, 0.0)

INC_OUTLET_TYPE= PRESSURE_OUTLET
MARKER_OUTLET= (outlet, 0.0)
MARKER_SPECIES_STRONG_BC= (inlet, wall_burner)

% ---------------- INCOMPRESSIBLE FLOW CONDITION DEFINITION -------------------%

INC_DENSITY_MODEL= FLAMELET
INC_DENSITY_INIT= 1.1766
INC_VELOCITY_INIT= ( 0.2, 0, 0 )
INC_ENERGY_EQUATION= YES
INC_TEMPERATURE_INIT= 300.0
INC_NONDIM= DIMENSIONAL

% -------------------- FLUID MODEL --------------------------------------- %

FLUID_MODEL= FLUID_FLAMELET
FILENAMES_INTERPOLATOR= (fgm_ch4.drg)
CONTROLLING_VARIABLE_NAMES= (ProgressVariable, EnthalpyTot)
CONTROLLING_VARIABLE_SOURCE_NAMES= (ProdRateTot_PV, NULL)
FLAME_INIT= (0.004, 0.0, 0.0, 1, 0, 0, 0.2e-3, 1)

% -------------------- SPECIES TRANSPORT ---------------------------------------%

USER_SCALAR_NAMES= (Y-CO, Y-NOx_tot)

USER_SOURCE_NAMES= ( \
    ProdRatePos_Y-CO,  ProdRateNegScaled_Y-CO  ,\
    ProdRateTot_Y-NOx, zero)

DIFFUSIVITY_CONSTANT= 0.00001

CONV_NUM_METHOD_SPECIES= BOUNDED_SCALAR
MUSCL_SPECIES= NO
SLOPE_LIMITER_SPECIES= NONE

TIME_DISCRE_SPECIES= EULER_IMPLICIT

SPECIES_INIT= (0, 0, 0, 0)
SPECIES_CLIPPING= NO
LOOKUP_NAMES= (MolarWeightMix, Conductivity, HeatRelease, Diffusivity, \
    ProdRatePos_Y-CO,  ProdRateNegScaled_Y-CO  ,\
    ProdRateTot_Y-NOx)

% --------------------------- VISCOSITY MODEL ---------------------------------%

CONDUCTIVITY_MODEL= FLAMELET
DIFFUSIVITY_MODEL= FLAMELET
KIND_SCALAR_MODEL= FLAMELET
VISCOSITY_MODEL= FLAMELET

% ------------- COMMON PARAMETERS DEFINING THE NUMERICAL METHOD ---------------%

%NUM_METHOD_GRAD= GREEN_GAUSS
NUM_METHOD_GRAD= WEIGHTED_LEAST_SQUARES
CFL_NUMBER= 25
CFL_ADAPT= NO

% ------------------------ LINEAR SOLVER DEFINITION ---------------------------%

LINEAR_SOLVER= BCGSTAB
LINEAR_SOLVER_PREC= ILU
LINEAR_SOLVER_ERROR= 1E-10
LINEAR_SOLVER_ITER= 20

% -------------------- FLOW NUMERICAL METHOD DEFINITION -----------------------%

CONV_NUM_METHOD_FLOW= FDS
MUSCL_FLOW= NO
SLOPE_LIMITER_FLOW= NONE
VENKAT_LIMITER_COEFF= 10.0
JST_SENSOR_COEFF= ( 0.5, 0.02 )
TIME_DISCRE_FLOW= EULER_IMPLICIT
