

% ------------- DIRECT, ADJOINT, AND LINEARIZED PROBLEM DEFINITION ------------%

SOLVER= INC_NAVIER_STOKES
KIND_TURB_MODEL= NONE

MARKER_ANALYZE= (outlet)
MARKER_ANALYZE_AVERAGE= AREA

MARKER_MONITORING= ( NONE )
MARKER_PLOTTING= ( NONE )

WRT_ZONE_HIST= YES

%SCREEN_OUTPUT= INNER_ITER WALL_TIME RMS_PRESSURE RMS_VELOCITY-X RMS_VELOCITY-Y RMS_TKE RMS_DISSIPATION LINSOL_ITER LINSOL_RESIDUAL RMS_ADJ_PRESSURE RMS_ADJ_VELOCITY-X RMS_ADJ_VELOCITY-Y

SCREEN_OUTPUT= INNER_ITER WALL_TIME RMS_ADJ_PRESSURE RMS_ADJ_VELOCITY-X RMS_ADJ_VELOCITY-Y

HISTORY_OUTPUT= RMS_RES AERO_COEFF FLOW_COEFF FLOW_COEFF_SURF

VOLUME_OUTPUT= SOLUTION PRIMITIVE SOURCE RESIDUAL LOOKUP

OUTPUT_FILES= ( RESTART_ASCII )

INNER_ITER= 1

% -------------------- BOUNDARY CONDITION DEFINITION --------------------------%

MARKER_SYM= ( symmetry_ym, symmetry_yp )

MARKER_ISOTHERMAL= ( wall_burner, 450.0 )

INLET_MATCHING_TOLERANCE= 1e-5

INC_INLET_TYPE= VELOCITY_INLET

MARKER_INLET= (inlet, 300.0, 0.4, 1.0, 0.0, 0.0)
MARKER_INLET_SPECIES= (inlet, 0.0, 0.0, 0.0, 0.0, 0.0, 0.0, 0.0)

INC_OUTLET_TYPE= PRESSURE_OUTLET
MARKER_OUTLET= (outlet, 0.0)
SPECIES_USE_STRONG_BC= YES

% ---------------- INCOMPRESSIBLE FLOW CONDITION DEFINITION -------------------%

INC_DENSITY_MODEL= VARIABLE
INC_DENSITY_INIT= 1.1766
INC_VELOCITY_INIT= ( 0.2, 0, 0 )
INC_ENERGY_EQUATION= YES
INC_TEMPERATURE_INIT= 300.0
INC_NONDIM= DIMENSIONAL

% -------------------- FLUID MODEL --------------------------------------- %

FLUID_MODEL= FLUID_FLAMELET

FILENAME_LUT= fgm_ch4.drg

FLAME_OFFSET= 0.004 0.0 0.0
FLAME_NORMAL= 1.0 0.0 0.0
FLAME_THICKNESS= 0.2e-3
FLAME_BURNT_THICKNESS= 1

% -------------------- SPECIES TRANSPORT ---------------------------------------%

USER_SCALAR_NAMES= (Y-CO, Y-NOx_tot)

USER_SOURCE_NAMES= ( \
    ProdRatePos_Y-CO,  ProdRateNegScaled_Y-CO  ,\
    ProdRateTot_Y-NOx, zero)

DIFFUSIVITY_CONSTANT= 0.00001

CONV_NUM_METHOD_SPECIES= BOUNDED_SCALAR
MUSCL_SPECIES= NO
SLOPE_LIMITER_SPECIES= NONE

TIME_DISCRE_SPECIES= EULER_IMPLICIT

SPECIES_INIT= (0, 0, 0, 0, 0, 0, 0)
SPECIES_CLIPPING= NO
LOOKUP_NAMES= (MolarWeightMix, Conductivity, HeatRelease, Diffusivity, \
    ProdRatePos_Y-CO,  ProdRateNegScaled_Y-CO  ,\
    ProdRateTot_Y-NOx)

% --------------------------- VISCOSITY MODEL ---------------------------------%

CONDUCTIVITY_MODEL= FLAMELET
DIFFUSIVITY_MODEL= FLAMELET
KIND_SCALAR_MODEL= FLAMELET
VISCOSITY_MODEL= FLAMELET

% ------------- COMMON PARAMETERS DEFINING THE NUMERICAL METHOD ---------------%

%NUM_METHOD_GRAD= GREEN_GAUSS
NUM_METHOD_GRAD= WEIGHTED_LEAST_SQUARES

CFL_NUMBER= 75
CFL_ADAPT= NO

% ------------------------ LINEAR SOLVER DEFINITION ---------------------------%

% Linear solver for implicit formulations (BCGSTAB, FGMRES)
LINEAR_SOLVER= BCGSTAB

% Preconditioner of the Krylov linear solver (JACOBI, LINELET, LU_SGS)
LINEAR_SOLVER_PREC= ILU

% Minimum error of the linear solver for implicit formulations
LINEAR_SOLVER_ERROR= 1E-10

% Max number of iterations of the linear solver for the implicit formulation
LINEAR_SOLVER_ITER= 20

% -------------------- FLOW NUMERICAL METHOD DEFINITION -----------------------%

% Convective numerical method (JST, LAX-FRIEDRICH, CUSP, ROE, AUSM, HLLC,
%                              TURKEL_PREC, MSW)
CONV_NUM_METHOD_FLOW= FDS

% Monotonic Upwind Scheme for Conservation Laws (TVD) in the flow equations.
%           Required for 2nd order upwind schemes (NO, YES)
MUSCL_FLOW= NO

% Slope limiter (VENKATAKRISHNAN, MINMOD)
SLOPE_LIMITER_FLOW= NONE

% Coefficient for the limiter (smooth regions)
VENKAT_LIMITER_COEFF= 10.0

% 2nd and 4th order artificial dissipation coefficients
JST_SENSOR_COEFF= ( 0.5, 0.02 )

% Time discretization (RUNGE-KUTTA_EXPLICIT, EULER_IMPLICIT, EULER_EXPLICIT)
TIME_DISCRE_FLOW= EULER_IMPLICIT
