% Physics -------------------------------------------------------------- %
SOLVER= EULER
KIND_TURB_MODEL= NONE
%
% Optimization --------------------------------------------------------- %
GRAD_OBJFUNC_FILENAME= of_grad.dat
%
% Compressible free-stream conditions ---------------------------------- %
MACH_NUMBER= 0.8
AOA= 2.5
INIT_OPTION= TD_CONDITIONS
FREESTREAM_OPTION= TEMPERATURE_FS
FREESTREAM_PRESSURE= 101325.0
FREESTREAM_TEMPERATURE= 273.15
REYNOLDS_LENGTH= 0.5
%
% Fluid properties ----------------------------------------------------- %
FLUID_MODEL= IDEAL_GAS
GAMMA_VALUE= 1.4
GAS_CONSTANT= 287.87
VISCOSITY_MODEL= CONSTANT_VISCOSITY
MU_CONSTANT= 1.716E-5
%
% Solid properties ----------------------------------------------------- %
MATERIAL_MODEL= NEO_HOOKEAN
ELASTICITY_MODULUS= 7E9
POISSON_RATIO= 0.35
MATERIAL_DENSITY= 2700.0
%
% Boundary conditions -------------------------------------------------- %
% fluid
MARKER_FAR= ( farfield )
MARKER_EULER= ( leading_edge, pressure_side, suction_side)
MARKER_DEFORM_MESH= ( leading_edge, pressure_side, suction_side )
DEFORM_MESH= YES
%
% Post processing and monitoring --------------------------------------- %
REF_ORIGIN_MOMENT_X= -0.125
REF_ORIGIN_MOMENT_Y= 0.00
REF_ORIGIN_MOMENT_Z= 0.00
REF_LENGTH= 0.5
REF_AREA= 0.5
MARKER_PLOTTING= ( leading_edge, pressure_side, suction_side )
MARKER_MONITORING= ( leading_edge, pressure_side, suction_side )
MARKER_DESIGNING= ( leading_edge, pressure_side, suction_side )
%
% Common numerics settings --------------------------------------------- %
REF_DIMENSIONALIZATION= DIMENSIONAL
NUM_METHOD_GRAD= GREEN_GAUSS
CFL_NUMBER= 15.0
%
% Flow numerics -------------------------------------------------------- %
CONV_NUM_METHOD_FLOW= JST
JST_SENSOR_COEFF= ( 0.5, 0.02 )
TIME_DISCRE_FLOW= EULER_IMPLICIT
%
% Linear solvers ------------------------------------------------------- %
LINEAR_SOLVER= BCGSTAB
LINEAR_SOLVER_PREC= ILU
LINEAR_SOLVER_ERROR= 1E-3
LINEAR_SOLVER_ITER= 1000
DISCADJ_LIN_SOLVER= BCGSTAB
DISCADJ_LIN_PREC= ILU
% Multigrid
MGLEVEL= 2
MGCYCLE= V_CYCLE
MG_PRE_SMOOTH= ( 1, 2, 3, 3 )
MG_POST_SMOOTH= ( 0, 0, 0, 0 )
MG_CORRECTION_SMOOTH= ( 0, 0, 0, 0 )
MG_DAMP_RESTRICTION= 0.75
MG_DAMP_PROLONGATION= 0.75
%
DEFORM_LINEAR_SOLVER= CONJUGATE_GRADIENT
DEFORM_LINEAR_SOLVER_PREC= ILU
DEFORM_LINEAR_SOLVER_ERROR= 1e-8
DEFORM_LINEAR_SOLVER_ITER= 1000
%
% Convergence criteria ------------------------------------------------- %
% interaction
TIME_ITER= 1
BGS_RELAXATION= FIXED_PARAMETER
STAT_RELAX_PARAMETER= 1.0
% fluid
INNER_ITER= 51
CONV_CRITERIA= RESIDUAL
CONV_STARTITER= 0
CONV_RESIDUAL_MINVAL= -9
% grid deformation
DEFORM_STIFFNESS_TYPE= INVERSE_VOLUME
%
% In\Out --------------------------------------------------------------- %
MESH_FILENAME= mesh.su2
MESH_FORMAT= SU2
%
RESTART_SOL= NO
SOLUTION_FILENAME= solution_fluid.dat
SOLUTION_ADJ_FILENAME= adjoint_fluid.dat
WRT_SOL_FREQ= 999999
RESTART_FILENAME= solution_fluid.dat
RESTART_ADJ_FILENAME= adjoint_fluid.dat
%
TABULAR_FORMAT= CSV
VOLUME_FILENAME= fluid
VOLUME_ADJ_FILENAME= adjoint_fluid
SURFACE_FILENAME= surface_fluid
SURFACE_ADJ_FILENAME= adjoint_surface_fluid
%
WRT_CON_FREQ= 10
CONV_FILENAME= history

