%%%%%%%%%%%%%%%%%%%%%%%%%%%%%%%%%%%%%%%%%%%%%%%%%%%%%%%%%%%%%%%%%%%%%%%%%%%%%%%%
%                                                                              %
% SU2 configuration file                                                       %
% Case description: Poiseuille flow case for testing a body force/periodicity  %
% Author: T. Kattmann                                                          %
% Institution: Robert Bosch GmbH                                               %
% Date: 20.05.2020                                                             %
% File Version 7.0.8 "Blackbird"                                               %
%                                                                              %
%%%%%%%%%%%%%%%%%%%%%%%%%%%%%%%%%%%%%%%%%%%%%%%%%%%%%%%%%%%%%%%%%%%%%%%%%%%%%%%%

% ------------- DIRECT, ADJOINT, AND LINEARIZED PROBLEM DEFINITION ------------%
%
SOLVER= INC_NAVIER_STOKES
%
% ---------------- INCOMPRESSIBLE FLOW CONDITION DEFINITION -------------------%
%
INC_DENSITY_MODEL= CONSTANT
INC_DENSITY_INIT= 1.0
INC_VELOCITY_INIT= ( 1.0, 0.0, 0.0 )
INC_NONDIM= DIMENSIONAL
%
% --------------------------- VISCOSITY MODEL ---------------------------------%
%
VISCOSITY_MODEL= CONSTANT_VISCOSITY
MU_CONSTANT= 1e-4
%
% ---------------------------- ENERGY EQUATION -------------------------------%
%
INC_ENERGY_EQUATION= YES
SPECIFIC_HEAT_CP= 3540.0
CONDUCTIVITY_MODEL= CONSTANT_PRANDTL
PRANDTL_LAM= 1.17
%
% --------------------- STREAMWISE PERIODICITY DEFINITION ---------------------%
%
KIND_STREAMWISE_PERIODIC= MASSFLOW
STREAMWISE_PERIODIC_MASSFLOW= 0.0027
STREAMWISE_PERIODIC_PRESSURE_DROP= 8.0
INC_OUTLET_DAMPING= 0.1
%
STREAMWISE_PERIODIC_TEMPERATURE= YES
%
% -------------------- BOUNDARY CONDITION DEFINITION --------------------------%
%
MARKER_HEATFLUX= ( fluid_top, 0.0, \
                   fluid_pin_interface, 5e5 )
MARKER_SYM= ( fluid_sym )
MARKER_PERIODIC= ( inlet, outlet,  0.0,0.0,0.0,  0.0,0.0,0.0,  0.008,0.0,0.0 )
%
MARKER_MONITORING= ( fluid_pin_interface )
MARKER_ANALYZE = ( inlet, outlet )
MARKER_ANALYZE_AVERAGE = MASSFLUX
%
% ------------- COMMON PARAMETERS DEFINING THE NUMERICAL METHOD ---------------%
%
NUM_METHOD_GRAD= WEIGHTED_LEAST_SQUARES
CFL_NUMBER= 1e4
ITER= 400
%
% ------------------------ LINEAR SOLVER DEFINITION ---------------------------%
%
LINEAR_SOLVER= FGMRES
LINEAR_SOLVER_PREC= ILU
LINEAR_SOLVER_ERROR= 1E-15
LINEAR_SOLVER_ITER= 20
%
% -------------------- FLOW NUMERICAL METHOD DEFINITION -----------------------%
%
CONV_NUM_METHOD_FLOW= FDS
MUSCL_FLOW= YES
SLOPE_LIMITER_FLOW= VENKATAKRISHNAN
VENKAT_LIMITER_COEFF= 0.03
TIME_DISCRE_FLOW= EULER_IMPLICIT

% -------------------- TURBULENT NUMERICAL METHOD DEFINITION ------------------%
%
KIND_TURB_MODEL= NONE
CONV_NUM_METHOD_TURB= SCALAR_UPWIND
TIME_DISCRE_TURB= EULER_IMPLICIT
%
% --------------------------- CONVERGENCE PARAMETERS --------------------------%
%
CONV_CRITERIA= RESIDUAL
CONV_RESIDUAL_MINVAL= -24
CONV_STARTITER= 10
%
% ------------------------- INPUT/OUTPUT INFORMATION ----------------------.su2
%
MESH_FILENAME= channel_bump_2D.su2
%
SCREEN_WRT_FREQ_INNER= 100
%
OUTPUT_FILES= ( RESTART, PARAVIEW_MULTIBLOCK )
