%%%%%%%%%%%%%%%%%%%%%%%%%%%%%%%%%%%%%%%%%%%%%%%%%%%%%%%%%%%%%%%%%%%%%%%%%%%%%%%%
%                                                                              %
% SU2 configuration file                                                       %
% Case description: Passive species transport validation case                  %
% Author: T. Kattmann                                                          %
% Institution: Bosch Thermotechniek B.V                                        %
% Date: 2021.10.02                                                             %
% File Version 8.0.0 "Harrier"                                                 %
%                                                                              %
%%%%%%%%%%%%%%%%%%%%%%%%%%%%%%%%%%%%%%%%%%%%%%%%%%%%%%%%%%%%%%%%%%%%%%%%%%%%%%%%

% ------------- DIRECT, ADJOINT, AND LINEARIZED PROBLEM DEFINITION ------------%
%
SOLVER = INC_NAVIER_STOKES
%
% ---------------- INCOMPRESSIBLE FLOW CONDITION DEFINITION -------------------%
%
% For the mean flow it is only inmportant to ensure a velocity (1,0,0) everywhere.
INC_DENSITY_MODEL = CONSTANT
INC_ENERGY_EQUATION = NO
INC_DENSITY_INIT = 1
INC_VELOCITY_INIT = (1.00, 0.0, 0.0 )
INC_NONDIM = DIMENSIONAL
%
% --------------------------- VISCOSITY MODEL ---------------------------------%
%
VISCOSITY_MODEL= CONSTANT_VISCOSITY
MU_CONSTANT= 1.716E-5
%
% -------------------- SPECIES TRANSPORT ---------------------------------------%
%
KIND_SCALAR_MODEL= SPECIES_TRANSPORT
%
DIFFUSIVITY_MODEL = CONSTANT_DIFFUSIVITY
DIFFUSIVITY_CONSTANT = 0.002
%
CONV_NUM_METHOD_SPECIES= SCALAR_UPWIND
MUSCL_SPECIES= YES
SLOPE_LIMITER_SPECIES= NONE
%
TIME_DISCRE_SPECIES= EULER_IMPLICIT
%
SPECIES_INIT = 0
SPECIES_CLIPPING= YES
SPECIES_CLIPPING_MIN= 0.0
SPECIES_CLIPPING_MAX= 1.0
%
% -------------------- BOUNDARY CONDITION DEFINITION --------------------------%
%
MARKER_SYM= ( top, bottom )
%
INC_INLET_TYPE= VELOCITY_INLET, VELOCITY_INLET
MARKER_INLET= ( gas_inlet, 300, 1, 1.0, 0.0, 0.0, air_inlet, 300, 1, 1.0, 0.0, 0.0 )
%
MARKER_SPECIES_STRONG_BC= (gas_inlet, air_inlet, outlet)
MARKER_INLET_SPECIES = (gas_inlet, 1.0, air_inlet, 0.0 )
%
INC_OUTLET_TYPE= PRESSURE_OUTLET
MARKER_OUTLET= ( outlet, 0 )
%
MARKER_ANALYZE= ( outlet )
%
% ------------- COMMON PARAMETERS DEFINING THE NUMERICAL METHOD ---------------%
%
NUM_METHOD_GRAD= GREEN_GAUSS
CFL_NUMBER = 60
ITER= 300
%
CFL_REDUCTION_SPECIES = 1.0
%
% ------------------------ LINEAR SOLVER DEFINITION ---------------------------%
%
LINEAR_SOLVER= FGMRES
LINEAR_SOLVER_PREC= ILU
LINEAR_SOLVER_ERROR= 1E-5
LINEAR_SOLVER_ITER= 10
%
% -------------------- FLOW NUMERICAL METHOD DEFINITION -----------------------%
%
CONV_NUM_METHOD_FLOW= FDS
MUSCL_FLOW= YES
SLOPE_LIMITER_FLOW = NONE
TIME_DISCRE_FLOW= EULER_IMPLICIT
%
% --------------------------- CONVERGENCE PARAMETERS --------------------------%
%
CONV_FIELD = RMS_PRESSURE, RMS_VELOCITY-X, RMS_VELOCITY-Y, RMS_SPECIES
CONV_RESIDUAL_MINVAL = -17
CONV_STARTITER= 10
%
% ------------------------- INPUT/OUTPUT INFORMATION --------------------------%
%
MESH_FILENAME = rectangle_mixing.su2
%
CUSTOM_OUTPUTS = 'avg_species : MassFlowAvg{SPECIES[0]}[outlet];\
                  avg_check : Function{avg_species - SURFACE_SPECIES_0}'
SCREEN_OUTPUT = INNER_ITER WALL_TIME RMS_RES LINSOL CUSTOM
SCREEN_WRT_FREQ_INNER= 10
%
HISTORY_OUTPUT = RMS_RES MAX_RES FLOW_COEFF
%
OUTPUT_FILES = RESTART, PARAVIEW_MULTIBLOCK
OUTPUT_WRT_FREQ= 300
VOLUME_OUTPUT = PRIMITIVE, RESIDUAL
