
-------------------------------------------------------------------------
|    ___ _   _ ___                                                      |
|   / __| | | |_  )   Release 7.0.6 "Blackbird"                         |
|   \__ \ |_| |/ /                                                      |
|   |___/\___//___|   Suite (Computational Fluid Dynamics Code)         |
|                                                                       |
-------------------------------------------------------------------------
| SU2 Project Website: https://su2code.github.io                        |
|                                                                       |
| The SU2 Project is maintained by the SU2 Foundation                   |
| (http://su2foundation.org)                                            |
-------------------------------------------------------------------------
| Copyright 2012-2020, SU2 Contributors                                 |
|                                                                       |
| SU2 is free software; you can redistribute it and/or                  |
| modify it under the terms of the GNU Lesser General Public            |
| License as published by the Free Software Foundation; either          |
| version 2.1 of the License, or (at your option) any later version.    |
|                                                                       |
| SU2 is distributed in the hope that it will be useful,                |
| but WITHOUT ANY WARRANTY; without even the implied warranty of        |
| MERCHANTABILITY or FITNESS FOR A PARTICULAR PURPOSE. See the GNU      |
| Lesser General Public License for more details.                       |
|                                                                       |
| You should have received a copy of the GNU Lesser General Public      |
| License along with SU2. If not, see <http://www.gnu.org/licenses/>.   |
-------------------------------------------------------------------------

Parsing config file for zone 0

----------------- Physical Case Definition ( Zone 0 ) -------------------
Compressible two-temperature thermochemical non-equilibrium Euler equations.
Mach number: 5.
Angle of attack (AoA): 0 deg, and angle of sideslip (AoS): 0 deg.
No restart solution, use the values at infinity (freestream).
Dimensional simulation.
The reference area is 1 m^2.
The semi-span will be computed using the max y(3D) value.
The reference length is 1 m.
Reference origin for moment evaluation is (0, 0, 0).
Surface(s) where the force coefficients are evaluated: Wall.

Input mesh file name: invwedge.su2

--------------- Space Numerical Integration ( Zone 0 ) ------------------
AUSM solver for the flow inviscid terms.
Second order integration in space, with slope limiter.
Venkatakrishnan slope-limiting method, with constant: 0.05. 
The reference element size is: 1. 
Gradient for upwind reconstruction: inverse-distance weighted Least-Squares.
Gradient for viscous and source terms: inverse-distance weighted Least-Squares.

--------------- Time Numerical Integration  ( Zone 0 ) ------------------
Local time stepping (steady state simulation).
Euler explicit method for the flow equations.
No CFL adaptation.
Courant-Friedrichs-Lewy number:      0.5

------------------ Convergence Criteria  ( Zone 0 ) ---------------------
Maximum number of solver subiterations: 150.
Begin convergence monitoring at iteration 10.
Residual minimum value: 1e-50.
Cauchy series min. value: 1e-10.
Number of Cauchy elements: 100.
Begin windowed time average at iteration 0.

-------------------- Output Information ( Zone 0 ) ----------------------
Writing solution files every 100 iterations.
Writing the convergence history file every 1 inner iterations.
Writing the screen convergence history every 1 inner iterations.
The tabular file format is Tecplot (.dat).
Convergence history file name: convergence.
Forces breakdown file name: forces_breakdown.dat.
Surface file name: soln_surface.
Volume file name: soln_volume.
Restart file name: restart_flow.dat.

------------- Config File Boundary Information ( Zone 0 ) ---------------
+-----------------------------------------------------------------------+
|                        Marker Type|                        Marker Name|
+-----------------------------------------------------------------------+
|                         Euler wall|                              Euler|
|                                   |                               Wall|
+-----------------------------------------------------------------------+
|                          Far-field|                           Farfield|
|                                   |                              Inlet|
+-----------------------------------------------------------------------+
|         Supersonic outlet boundary|                               Exit|
+-----------------------------------------------------------------------+

-------------------- Output Preprocessing ( Zone 0 ) --------------------
Screen output fields: INNER_ITER, RMS_DENSITY_N2, RMS_DENSITY_O2, RMS_DENSITY_NO, RMS_DENSITY_N, RMS_DENSITY_O, RMS_MOMENTUM-X, RMS_MOMENTUM-Y, RMS_ENERGY, RMS_ENERGY_VE
History output group(s): ITER, RMS_RES
Ignoring Convergence Field(s): RMS_DENSITY 
Warning: No (valid) fields chosen for convergence monitoring. Convergence monitoring inactive.
Warning: No (valid) fields chosen for time convergence monitoring. Time convergence monitoring inactive.
Volume output fields: COORDINATES, SOLUTION, PRIMITIVE, AUXILIARY

------------------- Geometry Preprocessing ( Zone 0 ) -------------------
Two dimensional problem.
25830 grid points before partitioning.
25392 volume elements before partitioning.
5 surface markers.
69 boundary elements in index 0 (Marker = Inlet).
349 boundary elements in index 1 (Marker = Wall).
69 boundary elements in index 2 (Marker = Exit).
368 boundary elements in index 3 (Marker = Farfield).
19 boundary elements in index 4 (Marker = Euler).
Executing the partitioning functions.
Building the graph adjacency structure.
Calling ParMETIS... graph partitioning complete (1420 edge cuts).
Distributing ParMETIS coloring.
Rebalancing vertices.
Rebalancing volume element connectivity.
Rebalancing markers and surface elements.
28714 vertices including ghost points. 
26813 interior elements including halo cells. 
26813 quadrilaterals.
Establishing MPI communication patterns.
Setting point connectivity.
Renumbering points (Reverse Cuthill McKee Ordering).
Recomputing point connectivity.
Setting element connectivity.
Checking the numerical grid orientation.
All volume elements are correctly orientend.
All surface elements are correctly orientend.
Identifying edges and vertices.
Computing centers of gravity.
Setting the control volume structure.
Area of the computational grid: 0.23592.
Searching for the closest normal neighbors to the surfaces.
Storing a mapping from global to local point index.
Compute the surface curvature.
Max K: 768.759. Mean K: 3.66666. Standard deviation K: 37.4822.
Checking for periodicity.
Computing mesh quality statistics for the dual control volumes.
+--------------------------------------------------------------+
|           Mesh Quality Metric|        Minimum|        Maximum|
+--------------------------------------------------------------+
|    Orthogonality Angle (deg.)|         66.913|        89.9961|
|     CV Face Area Aspect Ratio|        1.00187|        83.1257|
|           CV Sub-Volume Ratio|        1.00007|        2.37912|
+--------------------------------------------------------------+
Finding max control volume width.
Communicating number of neighbors.
Wetted area = 1 m.
Area projection in the x-plane = 0.173648 m, y-plane = 0 m.
Max. coordinate in the x-direction = 0.984808 m, y-direction = 0.173648 m.
Min. coordinate in the x-direction = 0 m, y-direction = 0 m.
Checking if Euler & Symmetry markers are straight/plane:
Boundary marker Euler is a single straight.
Boundary marker Wall is a single straight.
Computing wall distances.

-------------------- Solver Preprocessing ( Zone 0 ) --------------------
Inviscid flow: Computing density based on free-stream
and pressure using the the equation of state for multi-species and multi-temperatures.
Force coefficients computed using free-stream values.

-- Models:
+-----------------------------------------------------------------------------+
|                       Transport Model|                           Fluid Model|
+-----------------------------------------------------------------------------+
|                                     -|                  Park Two-Temperature|
+-----------------------------------------------------------------------------+
-- Fluid properties:
+------------------------------------------------------------------------------+
|                  Name|    Dim. value|    Ref. value|      Unit|Non-dim. value|
+------------------------------------------------------------------------------+
|          Gas Constant|       287.399|             1|  N.m/kg.K|       287.399|
|      Spec. Heat Ratio|             -|             -|         -|           1.4|
+------------------------------------------------------------------------------+
-- Initial and free-stream conditions:
+------------------------------------------------------------------------------+
|                  Name|    Dim. value|    Ref. value|      Unit|Non-dim. value|
+------------------------------------------------------------------------------+
|               Mixture|         AIR-5|             -|         -|         AIR-5|
|       Static Pressure|        101325|             1|        Pa|        101325|
|               Density|        1.2197|             1|    kg/m^3|        1.2197|
|       T-R Temperature|        288.15|             1|         K|        288.15|
|       V-E Temperature|        288.15|             1|         K|        288.15|
|          Total Energy|   1.66154e+06|       1.00004|   m^2/s^2|   1.66148e+06|
|            Velocity-X|       1705.16|             1|       m/s|       1705.16|
|            Velocity-Y|             0|             1|       m/s|             0|
|    Velocity Magnitude|       1705.16|             1|       m/s|       1705.16|
+------------------------------------------------------------------------------+
|           Mach Number|             -|             -|         -|             5|
+------------------------------------------------------------------------------+
Explicit Scheme. No Jacobian structure (Euler). MG level: 0.

------------------- Numerics Preprocessing ( Zone 0 ) -------------------

----------------- Integration Preprocessing ( Zone 0 ) ------------------

------------------- Iteration Preprocessing ( Zone 0 ) ------------------
Euler/Navier-Stokes/RANS fluid iteration.

------------------------------ Begin Solver -----------------------------

Simulation Run using the Single-zone Driver
+---------------------------------------------------------------------------------------------------------------------------------+
|  Inner_Iter| rms[Rho_N2]| rms[Rho_O2]| rms[Rho_NO]|  rms[Rho_N]|  rms[Rho_O]|   rms[RhoU]|   rms[RhoV]|   rms[RhoE]| rms[RhoEve]|
+---------------------------------------------------------------------------------------------------------------------------------+
|           0|   -0.918169|   -1.442932|  -32.000000|  -32.000000|  -24.921797|    2.427107|  -13.280738|    5.437040|    0.990754|
|           1|   -0.918791|   -1.443554|  -32.000000|  -32.000000|  -24.922367|    2.424881|    0.745908|    5.436409|    0.990135|
|           2|   -0.919812|   -1.444574|  -32.000000|  -32.000000|  -24.922946|    2.422232|    1.048487|    5.435389|    0.989120|
|           3|   -0.921293|   -1.446056|  -16.732960|  -17.063810|  -17.006065|    2.419101|    1.225538|    5.433919|    0.987649|
|           4|   -0.923331|   -1.448094|  -16.733530|  -17.063799|  -17.006636|    2.415394|    1.350707|    5.431912|    0.985632|
|           5|   -0.926028|   -1.450791|  -16.734091|  -17.063766|  -17.007197|    2.411010|    1.447039|    5.429269|    0.982969|
|           6|   -0.929521|   -1.454284|  -16.734692|  -17.063755|  -17.007798|    2.405812|    1.524838|    5.425858|    0.979529|
|           7|   -0.933933|   -1.458696|  -16.735308|  -17.063736|  -17.008413|    2.399674|    1.589600|    5.421563|    0.975199|
|           8|   -0.939411|   -1.464174|  -16.735952|  -17.063723|  -17.009058|    2.392442|    1.644652|    5.416242|    0.969842|
|           9|   -0.946097|   -1.470860|  -16.736618|  -17.063707|  -17.009724|    2.383960|    1.692162|    5.409756|    0.963330|
|          10|   -0.954130|   -1.478893|  -16.737310|  -17.063693|  -17.010416|    2.374072|    1.733626|    5.401966|    0.955538|
|          11|   -0.963633|   -1.488396|  -16.738025|  -17.063678|  -17.011131|    2.362635|    1.770117|    5.392748|    0.946365|
|          12|   -0.974715|   -1.499478|  -16.738764|  -17.063664|  -17.011870|    2.349513|    1.802433|    5.381982|    0.935721|
|          13|   -0.987455|   -1.512218|  -16.739525|  -17.063650|  -17.012631|    2.334600|    1.831159|    5.369574|    0.923549|
|          14|   -1.001826|   -1.526589|  -16.740307|  -17.063636|  -17.013413|    2.317897|    1.856748|    5.355533|    0.909899|
|          15|   -1.017821|   -1.542584|  -16.741108|  -17.063621|  -17.014214|    2.299387|    1.879496|    5.339822|    0.894793|
|          16|   -1.035254|   -1.560017|  -16.741925|  -17.063606|  -17.015031|    2.279260|    1.899465|    5.322587|    0.878420|
|          17|   -1.053733|   -1.578496|  -16.742757|  -17.063591|  -17.015863|    2.257942|    1.916900|    5.304165|    0.861153|
|          18|   -1.072612|   -1.597375|  -16.743602|  -17.063574|  -17.016707|    2.236168|    1.931922|    5.285154|    0.843571|
|          19|   -1.090887|   -1.615650|  -16.744456|  -17.063557|  -17.017562|    2.215133|    1.944546|    5.266505|    0.826547|
|          20|   -1.106989|   -1.631752|  -16.745319|  -17.063538|  -17.018425|    2.196740|    1.954846|    5.249789|    0.811436|
|          21|   -1.118782|   -1.643545|  -16.746186|  -17.063518|  -17.019292|    2.183569|    1.961970|    5.237218|    0.800088|
|          22|   -1.124009|   -1.648772|  -16.747057|  -17.063497|  -17.020163|    2.178346|    1.967789|    5.231269|    0.794469|
|          23|   -1.120542|   -1.645305|  -16.747926|  -17.063475|  -17.021032|    2.183224|    1.971132|    5.234357|    0.796650|
|          24|   -1.107255|   -1.632018|  -16.748790|  -17.063451|  -17.021896|    2.199307|    1.973053|    5.247770|    0.807892|
|          25|   -1.084605|   -1.609368|  -16.749645|  -17.063426|  -17.022751|    2.225435|    1.973699|    5.271152|    0.828195|
|          26|   -1.050802|   -1.575565|  -16.750481|  -17.063399|  -17.023587|    2.263355|    1.973200|    5.306456|    0.859726|
|          27|   -0.989403|   -1.514165|  -16.751282|  -17.063370|  -17.024387|    2.329158|    1.978504|    5.371750|    0.919354|
|          28|   -0.922132|   -1.446895|  -16.752036|  -17.063338|  -17.025142|    2.399886|    1.984229|    5.442886|    0.986464|
|          29|   -0.870926|   -1.395689|  -16.752758|  -17.063303|  -17.025864|    2.452905|    1.988016|    5.496398|    1.038557|
|          30|   -0.834849|   -1.359612|  -16.753471|  -17.063264|  -17.026577|    2.489504|    1.994589|    5.533700|    1.075969|
|          31|   -0.809871|   -1.334634|  -16.754171|  -17.063221|  -17.027277|    2.514713|    1.998416|    5.559157|    1.102352|
|          32|   -0.793804|   -1.318567|  -16.754886|  -17.063174|  -17.027992|    2.530401|    2.006892|    5.575235|    1.119893|
|          33|   -0.784841|   -1.309604|  -16.755601|  -17.063124|  -17.028707|    2.538909|    2.014392|    5.583859|    1.130165|
|          34|   -0.782085|   -1.306848|  -16.756339|  -17.063070|  -17.029445|    2.540947|    2.025658|    5.586093|    1.134206|
|          35|   -0.786425|   -1.311188|  -16.757129|  -17.063014|  -17.030235|    2.535586|    2.042962|    5.580990|    1.131234|
|          36|   -0.802031|   -1.326794|  -16.758015|  -17.062956|  -17.031121|    2.518890|    2.060565|    5.564072|    1.117421|
|          37|   -0.825883|   -1.350646|  -16.758895|  -17.062897|  -17.032001|    2.493677|    2.062403|    5.539032|    1.094558|
|          38|   -0.848960|   -1.373723|  -16.759764|  -17.062838|  -17.032870|    2.468922|    2.061723|    5.515200|    1.071548|
|          39|   -0.869695|   -1.394458|  -16.760635|  -17.062782|  -17.033741|    2.446656|    2.058723|    5.494285|    1.050271|
|          40|   -0.887194|   -1.411957|  -16.761506|  -17.062729|  -17.034611|    2.428010|    2.052638|    5.477070|    1.031843|
|          41|   -0.899622|   -1.424385|  -16.762355|  -17.062678|  -17.035461|    2.414903|    2.045453|    5.465271|    1.018242|
|          42|   -0.911593|   -1.436356|  -16.763241|  -17.062629|  -17.036347|    2.402696|    2.034919|    5.453511|    1.005272|
|          43|   -0.923784|   -1.448547|  -16.764154|  -17.062583|  -17.037260|    2.390664|    2.019790|    5.441067|    0.992352|
|          44|   -0.934331|   -1.459094|  -16.765050|  -17.062540|  -17.038156|    2.380198|    2.010535|    5.430463|    0.981595|
|          45|   -0.950249|   -1.475012|  -16.765999|  -17.062498|  -17.039105|    2.364269|    2.003495|    5.414319|    0.966144|
|          46|   -0.964112|   -1.488875|  -16.766963|  -17.062457|  -17.040069|    2.349998|    1.996950|    5.399784|    0.951989|
|          47|   -0.975720|   -1.500482|  -16.767919|  -17.062419|  -17.041025|    2.338159|    1.990384|    5.387383|    0.939655|
|          48|   -0.979825|   -1.504588|  -16.768853|  -17.062383|  -17.041959|    2.334256|    1.983581|    5.382731|    0.934073|
|          49|   -0.969047|   -1.493810|  -16.769703|  -17.062350|  -17.042809|    2.346010|    1.981161|    5.394230|    0.942928|
|          50|   -0.952932|   -1.477695|  -16.770487|  -17.062320|  -17.043593|    2.363499|    1.977577|    5.411476|    0.957912|
|          51|   -0.936589|   -1.461352|  -16.771227|  -17.062294|  -17.044333|    2.381311|    1.971190|    5.428810|    0.973980|
|          52|   -0.922515|   -1.447278|  -16.771940|  -17.062270|  -17.045046|    2.396779|    1.961861|    5.443469|    0.988386|
|          53|   -0.912042|   -1.436805|  -16.772649|  -17.062248|  -17.045755|    2.408456|    1.950517|    5.454081|    0.999562|
|          54|   -0.905022|   -1.429785|  -16.773357|  -17.062226|  -17.046463|    2.416214|    1.941149|    5.461035|    1.007510|
|          55|   -0.903059|   -1.427822|  -16.774102|  -17.062205|  -17.047207|    2.418520|    1.937234|    5.462871|    1.010620|
|          56|   -0.908466|   -1.433229|  -16.774934|  -17.062183|  -17.048040|    2.412979|    1.939181|    5.457308|    1.006506|
|          57|   -0.921426|   -1.446189|  -16.775861|  -17.062160|  -17.048967|    2.399204|    1.943134|    5.444048|    0.994749|
|          58|   -0.934620|   -1.459383|  -16.776810|  -17.062135|  -17.049916|    2.384970|    1.942564|    5.430168|    0.982150|
|          59|   -0.948499|   -1.473262|  -16.777763|  -17.062109|  -17.050869|    2.370243|    1.937983|    5.415458|    0.968444|
|          60|   -0.962192|   -1.486955|  -16.778701|  -17.062083|  -17.051807|    2.355742|    1.932898|    5.400940|    0.954554|
|          61|   -0.974554|   -1.499316|  -16.779621|  -17.062056|  -17.052727|    2.342744|    1.926936|    5.387783|    0.941651|
|          62|   -0.983109|   -1.507872|  -16.780481|  -17.062029|  -17.053587|    2.333715|    1.922472|    5.378717|    0.932211|
|          63|   -0.988531|   -1.513294|  -16.781298|  -17.062001|  -17.054404|    2.328087|    1.917863|    5.373031|    0.925838|
|          64|   -0.992064|   -1.516826|  -16.782085|  -17.061973|  -17.055191|    2.324610|    1.912112|    5.369319|    0.921482|
|          65|   -0.994392|   -1.519155|  -16.782848|  -17.061944|  -17.055955|    2.322531|    1.905531|    5.366800|    0.918542|
|          66|   -0.997421|   -1.522183|  -16.783606|  -17.061914|  -17.056713|    2.319733|    1.899343|    5.363628|    0.915274|
|          67|   -1.002969|   -1.527732|  -16.784402|  -17.061883|  -17.057509|    2.314224|    1.896694|    5.357955|    0.909834|
|          68|   -1.012260|   -1.537023|  -16.785255|  -17.061850|  -17.058362|    2.304772|    1.896944|    5.348555|    0.901010|
|          69|   -1.024753|   -1.549516|  -16.786162|  -17.061816|  -17.059269|    2.291945|    1.895543|    5.335780|    0.889090|
|          70|   -1.035371|   -1.560134|  -16.787041|  -17.061780|  -17.060148|    2.280904|    1.890838|    5.324687|    0.878730|
|          71|   -1.043433|   -1.568196|  -16.787874|  -17.061743|  -17.060981|    2.272627|    1.884466|    5.316191|    0.870795|
|          72|   -1.046807|   -1.571570|  -16.788654|  -17.061704|  -17.061760|    2.269396|    1.877377|    5.312629|    0.867445|
|          73|   -1.046083|   -1.570846|  -16.789381|  -17.061664|  -17.062488|    2.270565|    1.869926|    5.313388|    0.868179|
|          74|   -1.042049|   -1.566811|  -16.790061|  -17.061623|  -17.063168|    2.275236|    1.862398|    5.317599|    0.872261|
|          75|   -1.035624|   -1.560387|  -16.790696|  -17.061581|  -17.063803|    2.282397|    1.855195|    5.324264|    0.878804|
|          76|   -1.028451|   -1.553214|  -16.791295|  -17.061538|  -17.064402|    2.290342|    1.848018|    5.331628|    0.886165|
|          77|   -1.019394|   -1.544157|  -16.791824|  -17.061494|  -17.064931|    2.300150|    1.842589|    5.340990|    0.895493|
|          78|   -1.011443|   -1.536206|  -16.792341|  -17.061449|  -17.065448|    2.308699|    1.838009|    5.349150|    0.903789|
|          79|   -1.006129|   -1.530892|  -16.792894|  -17.061403|  -17.066001|    2.314256|    1.836757|    5.354631|    0.909572|
|          80|   -1.004937|   -1.529700|  -16.793526|  -17.061356|  -17.066633|    2.315365|    1.839261|    5.355890|    0.911369|
|          81|   -1.008328|   -1.533090|  -16.794258|  -17.061309|  -17.067365|    2.311679|    1.843153|    5.352488|    0.908763|
|          82|   -1.015647|   -1.540410|  -16.795113|  -17.061261|  -17.068220|    2.303795|    1.849394|    5.345053|    0.902293|
|          83|   -1.026576|   -1.551339|  -16.796084|  -17.061212|  -17.069191|    2.292088|    1.853330|    5.333698|    0.891958|
|          84|   -1.037601|   -1.562364|  -16.796999|  -17.061162|  -17.070106|    2.280297|    1.852265|    5.322105|    0.881192|
|          85|   -1.048373|   -1.573136|  -16.797908|  -17.061113|  -17.071015|    2.268862|    1.848854|    5.310707|    0.870357|
|          86|   -1.057909|   -1.582672|  -16.798788|  -17.061065|  -17.071895|    2.258800|    1.844634|    5.300543|    0.860462|
|          87|   -1.065591|   -1.590354|  -16.799620|  -17.061017|  -17.072727|    2.250795|    1.839556|    5.292307|    0.852211|
|          88|   -1.071125|   -1.595887|  -16.800409|  -17.060970|  -17.073516|    2.245142|    1.834107|    5.286288|    0.845928|
|          89|   -1.074202|   -1.598965|  -16.801150|  -17.060924|  -17.074257|    2.242156|    1.828458|    5.282814|    0.841991|
|          90|   -1.074781|   -1.599544|  -16.801840|  -17.060879|  -17.074947|    2.241843|    1.823086|    5.281945|    0.840525|
|          91|   -1.073003|   -1.597766|  -16.802478|  -17.060835|  -17.075585|    2.244018|    1.818259|    5.283551|    0.841462|
|          92|   -1.068204|   -1.592967|  -16.803034|  -17.060792|  -17.076141|    2.249253|    1.815458|    5.288508|    0.845612|
|          93|   -1.063286|   -1.588049|  -16.803601|  -17.060751|  -17.076707|    2.254487|    1.815388|    5.293744|    0.850183|
|          94|   -1.059797|   -1.584560|  -16.804217|  -17.060710|  -17.077324|    2.258128|    1.817916|    5.297608|    0.853662|
|          95|   -1.058868|   -1.583631|  -16.804916|  -17.060669|  -17.078023|    2.259035|    1.821934|    5.298891|    0.854901|
|          96|   -1.060454|   -1.585217|  -16.805691|  -17.060629|  -17.078798|    2.257296|    1.826310|    5.297627|    0.853882|
|          97|   -1.064513|   -1.589276|  -16.806540|  -17.060590|  -17.079647|    2.253003|    1.828915|    5.293779|    0.850528|
|          98|   -1.066769|   -1.591532|  -16.807322|  -17.060550|  -17.080429|    2.250529|    1.827571|    5.291547|    0.848651|
|          99|   -1.068121|   -1.592884|  -16.808058|  -17.060511|  -17.081165|    2.249073|    1.825286|    5.290173|    0.847540|
|         100|   -1.068439|   -1.593202|  -16.808747|  -17.060473|  -17.081854|    2.248772|    1.822321|    5.289785|    0.847308|
+-----------------------------------------------------------------------+
|        File Writing Summary       |              Filename             |
+-----------------------------------------------------------------------+
|SU2 ASCII restart                  |restart_flow.csv                   |
|Paraview ASCII                     |soln_volume.vtk                    |
+-----------------------------------------------------------------------+
+---------------------------------------------------------------------------------------------------------------------------------+
|  Inner_Iter| rms[Rho_N2]| rms[Rho_O2]| rms[Rho_NO]|  rms[Rho_N]|  rms[Rho_O]|   rms[RhoU]|   rms[RhoV]|   rms[RhoE]| rms[RhoEve]|
+---------------------------------------------------------------------------------------------------------------------------------+
|         101|   -1.068261|   -1.593024|  -16.809393|  -17.060435|  -17.082500|    2.248937|    1.819761|    5.289854|    0.847445|
|         102|   -1.067492|   -1.592255|  -16.809998|  -17.060397|  -17.083105|    2.249752|    1.817130|    5.290473|    0.848045|
|         103|   -1.066028|   -1.590791|  -16.810557|  -17.060359|  -17.083664|    2.251340|    1.814525|    5.291760|    0.849243|
|         104|   -1.064009|   -1.588772|  -16.811076|  -17.060321|  -17.084183|    2.253530|    1.812259|    5.293584|    0.850923|
|         105|   -1.061514|   -1.586277|  -16.811550|  -17.060283|  -17.084657|    2.256192|    1.810602|    5.295885|    0.853046|
|         106|   -1.057997|   -1.582759|  -16.811953|  -17.060245|  -17.085059|    2.259859|    1.810216|    5.299355|    0.856218|
|         107|   -1.054860|   -1.579623|  -16.812350|  -17.060207|  -17.085457|    2.263012|    1.812151|    5.302583|    0.859172|
|         108|   -1.053612|   -1.578374|  -16.812823|  -17.060168|  -17.085929|    2.264116|    1.816339|    5.303930|    0.860410|
|         109|   -1.055111|   -1.579874|  -16.813422|  -17.060129|  -17.086529|    2.262296|    1.821894|    5.302489|    0.859087|
|         110|   -1.059578|   -1.584341|  -16.814164|  -17.060088|  -17.087271|    2.257375|    1.827519|    5.298019|    0.854974|
|         111|   -1.066847|   -1.591610|  -16.815040|  -17.060047|  -17.088147|    2.249557|    1.832076|    5.290683|    0.848219|
|         112|   -1.073963|   -1.598726|  -16.815887|  -17.060005|  -17.088993|    2.241906|    1.832864|    5.283346|    0.841433|
|         113|   -1.078895|   -1.603658|  -16.816621|  -17.059961|  -17.089728|    2.236586|    1.831407|    5.278153|    0.836589|
|         114|   -1.082042|   -1.606805|  -16.817267|  -17.059918|  -17.090373|    2.233247|    1.828911|    5.274772|    0.833413|
|         115|   -1.083256|   -1.608019|  -16.817817|  -17.059874|  -17.090923|    2.232037|    1.825888|    5.273380|    0.832095|
|         116|   -1.082556|   -1.607319|  -16.818279|  -17.059829|  -17.091386|    2.232923|    1.822593|    5.273968|    0.832651|
|         117|   -1.080141|   -1.604904|  -16.818663|  -17.059784|  -17.091769|    2.235663|    1.819238|    5.276328|    0.834886|
|         118|   -1.076175|   -1.600938|  -16.818963|  -17.059738|  -17.092069|    2.240053|    1.816051|    5.280297|    0.838683|
|         119|   -1.071096|   -1.595859|  -16.819193|  -17.059692|  -17.092300|    2.245601|    1.813230|    5.285419|    0.843619|
|         120|   -1.064847|   -1.589610|  -16.819332|  -17.059646|  -17.092439|    2.252319|    1.811346|    5.291801|    0.849780|
|         121|   -1.057977|   -1.582740|  -16.819402|  -17.059599|  -17.092509|    2.259524|    1.811718|    5.299016|    0.856749|
|         122|   -1.052980|   -1.577743|  -16.819576|  -17.059552|  -17.092682|    2.264653|    1.814667|    5.304347|    0.862035|
|         123|   -1.050570|   -1.575333|  -16.819907|  -17.059504|  -17.093014|    2.266992|    1.819668|    5.307045|    0.864912|
|         124|   -1.051671|   -1.576434|  -16.820483|  -17.059455|  -17.093590|    2.265634|    1.825277|    5.306128|    0.864447|
|         125|   -1.055776|   -1.580539|  -16.821258|  -17.059406|  -17.094364|    2.261140|    1.830684|    5.302138|    0.861114|
|         126|   -1.061866|   -1.586629|  -16.822166|  -17.059356|  -17.095272|    2.254562|    1.833469|    5.295987|    0.855671|
|         127|   -1.066654|   -1.591417|  -16.822952|  -17.059305|  -17.096059|    2.249326|    1.832942|    5.290973|    0.851103|
|         128|   -1.070717|   -1.595480|  -16.823687|  -17.059255|  -17.096794|    2.244913|    1.831505|    5.286643|    0.846998|
|         129|   -1.073728|   -1.598490|  -16.824331|  -17.059204|  -17.097438|    2.241698|    1.829350|    5.283363|    0.843749|
|         130|   -1.075557|   -1.600320|  -16.824870|  -17.059154|  -17.097976|    2.239818|    1.826476|    5.281287|    0.841548|
|         131|   -1.076139|   -1.600902|  -16.825319|  -17.059104|  -17.098426|    2.239319|    1.823263|    5.280480|    0.840475|
|         132|   -1.075396|   -1.600159|  -16.825671|  -17.059055|  -17.098777|    2.240262|    1.819960|    5.281033|    0.840667|
|         133|   -1.073489|   -1.598252|  -16.825933|  -17.059007|  -17.099040|    2.242458|    1.816713|    5.282785|    0.842012|
|         134|   -1.070496|   -1.595259|  -16.826107|  -17.058959|  -17.099214|    2.245798|    1.813793|    5.285675|    0.844463|
|         135|   -1.066384|   -1.591147|  -16.826173|  -17.058911|  -17.099279|    2.250231|    1.811989|    5.289830|    0.848143|
|         136|   -1.062128|   -1.586891|  -16.826229|  -17.058864|  -17.099336|    2.254675|    1.812925|    5.294321|    0.852215|
|         137|   -1.059646|   -1.584409|  -16.826457|  -17.058817|  -17.099564|    2.257174|    1.816162|    5.297047|    0.854749|
|         138|   -1.059783|   -1.584546|  -16.826937|  -17.058770|  -17.100043|    2.256877|    1.820809|    5.297115|    0.854902|
|         139|   -1.062753|   -1.587516|  -16.827690|  -17.058724|  -17.100797|    2.253611|    1.825696|    5.294293|    0.852432|
|         140|   -1.068406|   -1.593169|  -16.828687|  -17.058677|  -17.101793|    2.247571|    1.829552|    5.288719|    0.847441|
|         141|   -1.073201|   -1.597963|  -16.829559|  -17.058629|  -17.102666|    2.242393|    1.829224|    5.283818|    0.842978|
|         142|   -1.076640|   -1.601403|  -16.830291|  -17.058583|  -17.103398|    2.238687|    1.827349|    5.280238|    0.839661|
|         143|   -1.078909|   -1.603671|  -16.830900|  -17.058536|  -17.104006|    2.236291|    1.824713|    5.277831|    0.837369|
|         144|   -1.079969|   -1.604732|  -16.831381|  -17.058490|  -17.104488|    2.235235|    1.821660|    5.276645|    0.836170|
|         145|   -1.079964|   -1.604727|  -16.831754|  -17.058444|  -17.104861|    2.235374|    1.818221|    5.276525|    0.835955|
|         146|   -1.078988|   -1.603751|  -16.832008|  -17.058398|  -17.105114|    2.236549|    1.814831|    5.277383|    0.836664|
|         147|   -1.077113|   -1.601876|  -16.832155|  -17.058353|  -17.105262|    2.238705|    1.811409|    5.279145|    0.838211|
|         148|   -1.074495|   -1.599257|  -16.832205|  -17.058307|  -17.105312|    2.241654|    1.808161|    5.281661|    0.840487|
|         149|   -1.071288|   -1.596051|  -16.832158|  -17.058262|  -17.105265|    2.245184|    1.805519|    5.284786|    0.843369|

----------------------------- Solver Exit -------------------------------

Maximum number of iterations reached (ITER = 150) before convergence.
+-----------------------------------------------------------------------+
|      Convergence Field     |     Value    |   Criterion  |  Converged |
+-----------------------------------------------------------------------+
+-----------------------------------------------------------------------+
-------------------------------------------------------------------------
+-----------------------------------------------------------------------+
|        File Writing Summary       |              Filename             |
+-----------------------------------------------------------------------+
|SU2 ASCII restart                  |restart_flow.csv                   |
|Paraview ASCII                     |soln_volume.vtk                    |
+-----------------------------------------------------------------------+

------------------------- Solver Postprocessing -------------------------
Deleted CNumerics container.
Deleted CIntegration container.
Deleted CSolver container.
Deleted CIteration container.
Deleted CInterpolator container.
Deleted CInterface container.
Deleted CGeometry container.
Deleted CFreeFormDefBox class.
Deleted CSurfaceMovement class.
Deleted CVolumetricMovement class.
Deleted CConfig container.
Deleted nInst container.
Deleted COutput class.
-------------------------------------------------------------------------

------------------------- Exit Success (SU2_CFD) ------------------------

