%%%%%%%%%%%%%%%%%%%%%%%%%%%%%%%%%%%%%%%%%%%%%%%%%%%%%%%%%%%%%%%%%%%%%%%%%%%%%%%%
%                                                                              %
% SU2 configuration file                                                       %
% Case description: Unit test Multicomponent Cantera 3 species H2, O2, N2      %
% Author: Cristopher Morales Ubal                                              %
% Institution: Eindhoven University of Technology                              %
% Date: 2024/10/01                                                             %
% File Version 8.1.0 "Harrier"                                                 %
%                                                                              %
%%%%%%%%%%%%%%%%%%%%%%%%%%%%%%%%%%%%%%%%%%%%%%%%%%%%%%%%%%%%%%%%%%%%%%%%%%%%%%%%

% ------------- DIRECT, ADJOINT, AND LINEARIZED PROBLEM DEFINITION ------------%
%
SOLVER= INC_NAVIER_STOKES
%
% ---------------- INCOMPRESSIBLE FLOW CONDITION DEFINITION -------------------%
%
INC_DENSITY_MODEL= VARIABLE
%
INC_NONDIM= DIMENSIONAL
%
% -------------------- FLUID PROPERTIES ------------------------------------- %
%
FLUID_MODEL= FLUID_CANTERA
COMBUSTION= YES
FLAME_INIT_METHOD= SPARK
%
CONDUCTIVITY_MODEL= CANTERA
VISCOSITY_MODEL= CANTERA
%
GAS_COMPOSITION_NAMES= H2, O2, N2
CHEMICAL_MECHANISM_FILE= h2o2.yaml
PHASE_NAME= ohmech
TRANSPORT_MODEL= mixture-averaged
%
% -------------------- SCALAR TRANSPORT ---------------------------------------%
%
KIND_SCALAR_MODEL= SPECIES_TRANSPORT
DIFFUSIVITY_MODEL= CANTERA
%
SPECIES_INIT= 0.020137986304114414,0.22830757006769173
