SOLVER = EULER
DEFORM_MESH = NO
MATH_PROBLEM = DIRECT
KIND_DISC_ADJ = RESIDUALS
AXISYMMETRIC = NO
SYSTEM_MEASUREMENTS = SI
MGLEVEL = 0
FLUID_MODEL = IDEAL_GAS
GAMMA_VALUE = 1.4
GAS_CONSTANT = 287.058
MACH_NUMBER = 0.25
REYNOLDS_NUMBER = 1000000
AOA = 5.0
SIDESLIP_ANGLE = 0.0
FREESTREAM_OPTION = TEMPERATURE_FS
FREESTREAM_PRESSURE = 101325
FREESTREAM_TEMPERATURE = 300
FREESTREAM_DENSITY = 1.24
REF_ORIGIN_MOMENT_X = 0.00
REF_ORIGIN_MOMENT_Y = 0.00
REF_ORIGIN_MOMENT_Z = 0.00
REF_LENGTH = 1.0
REF_AREA = 0
REF_DIMENSIONALIZATION = DIMENSIONAL
MARKER_EULER = ( y_minus, y_plus )
MARKER_FAR = ( x_minus, x_plus )
MARKER_FLUID_LOAD = ( y_minus, y_plus )
MARKER_DEFORM_MESH = ( y_minus, y_plus )
MARKER_PLOTTING = ( x_minus, y_minus, x_plus, y_plus )
MARKER_MONITORING = ( y_minus, y_plus )
MARKER_DESIGNING = ( y_minus, y_plus )
CONV_NUM_METHOD_TURB = SCALAR_UPWIND
TIME_DISCRE_TURB = EULER_EXPLICIT
CFL_REDUCTION_TURB = 1.0
NUM_METHOD_GRAD = GREEN_GAUSS
OBJECTIVE_FUNCTION = LIFT
CFL_NUMBER = 1.0
CFL_ADAPT = NO
CFL_ADAPT_PARAM = ( 0.1, 1.2, 1, 150 )
RK_ALPHA_COEFF = ( 0.66667, 0.66667, 1.000000 )
INNER_ITER = 1250
LINEAR_SOLVER = FGMRES
LINEAR_SOLVER_PREC = ILU
LINEAR_SOLVER_ERROR = 1E-10
LINEAR_SOLVER_ITER = 500
DEFORM_LINEAR_SOLVER = CONJUGATE_GRADIENT
DEFORM_LINEAR_SOLVER_PREC = ILU
DEFORM_LINEAR_SOLVER_ERROR = 1E-20
DEFORM_LINEAR_SOLVER_ITER = 1000
CONV_NUM_METHOD_FLOW = ROE
MUSCL_FLOW = YES
SLOPE_LIMITER_FLOW = NONE
VENKAT_LIMITER_COEFF = 0.1
JST_SENSOR_COEFF = ( 0.5, 0.02 )
TIME_DISCRE_FLOW = EULER_IMPLICIT
CONV_NUM_METHOD_ADJFLOW = ROE
MUSCL_ADJFLOW = YES
SLOPE_LIMITER_ADJFLOW = NONE
CFL_REDUCTION_ADJFLOW = 1.0
TIME_DISCRE_ADJFLOW = EULER_EXPLICIT
CONV_FIELD = REL_RMS_DENSITY, LIFT
CONV_RESIDUAL_MINVAL = -13
CONV_STARTITER = 10
CONV_CAUCHY_ELEMS = 100
CONV_CAUCHY_EPS = 1E-3
SCREEN_OUTPUT = (INNER_ITER, RMS_DENSITY, REL_RMS_DENSITY, RMS_ADJ_DENSITY, LIFT, DRAG)
HISTORY_OUTPUT = ITER, FLOW_COEFF, AERO_COEFF, AOA, RMS_RES, REL_RMS_RES, SENSITIVITY
VOLUME_OUTPUT = (COORDINATES, SOLUTION, PRIMITIVE, RESIDUAL, SENSITIVITY)
MESH_FORMAT = RECTANGLE
MESH_BOX_SIZE = (6, 6, 0)
MESH_BOX_LENGTH = (1.0, 1.0, 0)
MESH_OUT_FILENAME = box.deformed.su2
SOLUTION_FILENAME = solution.dat
SOLUTION_ADJ_FILENAME = solution_adj.dat
TABULAR_FORMAT = TECPLOT
OUTPUT_FILES = (RESTART, SURFACE_CSV, SURFACE_TECPLOT_ASCII)
CONV_FILENAME = history
VOLUME_FILENAME = flow
VOLUME_ADJ_FILENAME = flow_adjoint
GRAD_OBJFUNC_FILENAME = of_grad.dat
SURFACE_FILENAME = surface_flow
SURFACE_ADJ_FILENAME = surface_adjoint
WRT_FORCES_BREAKDOWN = YES
BREAKDOWN_FILENAME = forces_breakdown.dat
VALUE_OBJFUNC_FILENAME = of_eval.dat
TARGET_CL = 0.0
