%%%%%%%%%%%%%%%%%%%%%%%%%%%%%%%%%%%%%%%%%%%%%%%%%%%%%%%%%%%%%%%%%%%%%%%%%%%%%%%%
%                                                                              %
% SU2 configuration file                                                       %
% Case description: Test interp. restart, and auto time-step for dual-time     %
% File Version 8.0.0 "Harrier"                                                 %
%                                                                              %
%%%%%%%%%%%%%%%%%%%%%%%%%%%%%%%%%%%%%%%%%%%%%%%%%%%%%%%%%%%%%%%%%%%%%%%%%%%%%%%%
%
SOLVER= NAVIER_STOKES
KIND_TURB_MODEL= NONE
RESTART_SOL= YES
RESTART_ITER= 1

% -------------------- COMPRESSIBLE FREE-STREAM DEFINITION --------------------%
%
MACH_NUMBER= 0.1
INIT_OPTION= TD_CONDITIONS
FREESTREAM_OPTION= TEMPERATURE_FS
FREESTREAM_TEMPERATURE= 297.62
REYNOLDS_NUMBER= 600
REYNOLDS_LENGTH= 0.02

% ---------------------- REFERENCE VALUE DEFINITION ---------------------------%
%
REF_ORIGIN_MOMENT_X = 0.00
REF_ORIGIN_MOMENT_Y = 0.00
REF_ORIGIN_MOMENT_Z = 0.00
REF_LENGTH= 0.02
REF_AREA= 0.02
%
FLUID_MODEL= IDEAL_GAS
GAMMA_VALUE= 1.4
GAS_CONSTANT= 287.87
VISCOSITY_MODEL= CONSTANT_VISCOSITY
MU_CONSTANT= 0.001

% -------------------- BOUNDARY CONDITION DEFINITION --------------------------%
%
MARKER_HEATFLUX= ( y_minus, 0.0 )
%
MARKER_SYM= ( y_plus )
MARKER_PERIODIC= ( x_minus, x_plus, 0,0,0, 0,0,0, 0.01,0,0 )
%
MARKER_INLET= ( z_minus, 300.0, 100000.0, 0.0, 0.0, 1.0 )
MARKER_OUTLET= ( z_plus, 99000.0 )
%
MARKER_PLOTTING= ( y_minus )
MARKER_MONITORING= ( y_minus )

% ------------- COMMON PARAMETERS DEFINING THE NUMERICAL METHOD ---------------%
%
NUM_METHOD_GRAD= GREEN_GAUSS
CFL_NUMBER= 1e12
CFL_ADAPT= NO
TIME_DISCRE_FLOW= EULER_IMPLICIT
TIME_DOMAIN= YES
UNST_CFL_NUMBER= 20
TIME_MARCHING= DUAL_TIME_STEPPING-1ST_ORDER

% ------------------------ LINEAR SOLVER DEFINITION ---------------------------%
%
LINEAR_SOLVER= SMOOTHER
LINEAR_SOLVER_SMOOTHER_RELAXATION= 0.7
LINEAR_SOLVER_PREC= LU_SGS
LINEAR_SOLVER_ERROR= 0.0001
LINEAR_SOLVER_ITER= 2

% -------------------- FLOW NUMERICAL METHOD DEFINITION -----------------------%
%
CONV_NUM_METHOD_FLOW= ROE
MUSCL_FLOW= YES
SLOPE_LIMITER_FLOW= NONE

% --------------------------- CONVERGENCE PARAMETERS --------------------------%
%
CONV_RESIDUAL_MINVAL= -11
CONV_STARTITER= 0
TIME_ITER= 10
INNER_ITER= 20

% ------------------------- INPUT/OUTPUT INFORMATION --------------------------%
%
MESH_FORMAT= BOX
MESH_BOX_LENGTH= (0.01, 0.01, 0.1)
MESH_BOX_SIZE= (17, 33, 129)
SCREEN_OUTPUT= (TIME_ITER, INNER_ITER, CUR_TIME, RMS_DENSITY, RMS_MOMENTUM-X, RMS_MOMENTUM-Y, RMS_MOMENTUM-Z, RMS_ENERGY, FORCE_Z, LINSOL_RESIDUAL)
