%%%%%%%%%%%%%%%%%%%%%%%%%%%%%%%%%%%%%%%%%%%%%%%%%%%%%%%%%%%%%%%%%%%%%%%%%%%%%%%%
%                                                                              %
% SU2 configuration file                                                       %
% Case description: Axisymmetric supersonic converging-diverging air nozzle    %
% Author: Florian Dittmann                                                     %
% Date: 2021.12.02                                                             %
% File Version 8.0.0 "Harrier"                                                 %
%                                                                              %
%%%%%%%%%%%%%%%%%%%%%%%%%%%%%%%%%%%%%%%%%%%%%%%%%%%%%%%%%%%%%%%%%%%%%%%%%%%%%%%%
%
% ------------- DIRECT, ADJOINT, AND LINEARIZED PROBLEM DEFINITION ------------%
%
SOLVER= RANS
KIND_TURB_MODEL= SST
RESTART_SOL= YES
AXISYMMETRIC= YES

% -------------------- COMPRESSIBLE FREE-STREAM DEFINITION --------------------%
%
MACH_NUMBER= 1E-9
INIT_OPTION= TD_CONDITIONS
FREESTREAM_OPTION= TEMPERATURE_FS
FREESTREAM_PRESSURE= 1400000
FREESTREAM_TEMPERATURE= 373.15
REF_DIMENSIONALIZATION= DIMENSIONAL

% ---- IDEAL GAS, POLYTROPIC, VAN DER WAALS AND PENG ROBINSON CONSTANTS -------%
%
FLUID_MODEL= STANDARD_AIR

% --------------------------- VISCOSITY MODEL ---------------------------------%
%
VISCOSITY_MODEL= CONSTANT_VISCOSITY
MU_CONSTANT= 1.716E-5

% --------------------------- THERMAL CONDUCTIVITY MODEL ----------------------%
%
CONDUCTIVITY_MODEL= CONSTANT_PRANDTL
PRANDTL_LAM= 0.72
PRANDTL_TURB= 0.90

% -------------------- BOUNDARY CONDITION DEFINITION --------------------------%
%
MARKER_HEATFLUX= ( WALL, 0.0 )
MARKER_SYM= ( SYMMETRY )
MARKER_RIEMANN= ( INFLOW, TOTAL_CONDITIONS_PT, 1400000.0, 373.15, 1.0, 0.0, 0.0, \
                  OUTFLOW, STATIC_PRESSURE, 100000.0, 0.0, 0.0, 0.0, 0.0 )
MARKER_MONITORING = (WALL)

% ------------- COMMON PARAMETERS DEFINING THE NUMERICAL METHOD ---------------%
%
NUM_METHOD_GRAD= GREEN_GAUSS
CFL_NUMBER= 1000.0
CFL_ADAPT= NO
MAX_DELTA_TIME= 1E6
OBJECTIVE_FUNCTION= DRAG

% ----------- SLOPE LIMITER AND DISSIPATION SENSOR DEFINITION -----------------%
%
MUSCL_FLOW= YES
SLOPE_LIMITER_FLOW= NONE

% ------------------------ LINEAR SOLVER DEFINITION ---------------------------%
%
LINEAR_SOLVER= FGMRES
LINEAR_SOLVER_PREC= ILU
LINEAR_SOLVER_ILU_FILL_IN= 0
LINEAR_SOLVER_ERROR= 0.01
LINEAR_SOLVER_ITER= 10

% -------------------- FLOW NUMERICAL METHOD DEFINITION -----------------------%
%
CONV_NUM_METHOD_FLOW= ROE
ENTROPY_FIX_COEFF= 0.1
TIME_DISCRE_FLOW= EULER_IMPLICIT

% -------------------- TURBULENT NUMERICAL METHOD DEFINITION ------------------%
%
CONV_NUM_METHOD_TURB= SCALAR_UPWIND
TIME_DISCRE_TURB= EULER_IMPLICIT
CFL_REDUCTION_TURB= 1.0

% --------------------------- CONVERGENCE PARAMETERS --------------------------%
%
ITER= 3000
CONV_RESIDUAL_MINVAL= -12
CONV_STARTITER= 10

% ------------------------- INPUT/OUTPUT INFORMATION --------------------------%
%
MESH_FILENAME= nozzle.su2
SOLUTION_FILENAME= solution_flow.dat
RESTART_FILENAME= restart_flow.dat
OUTPUT_WRT_FREQ= 1000
SCREEN_OUTPUT= (INNER_ITER, RMS_DENSITY, RMS_ENERGY, RMS_TKE, RMS_DISSIPATION, TOTAL_HEATFLUX, \
                RMS_ADJ_DENSITY, RMS_ADJ_ENERGY, RMS_ADJ_TKE, RMS_ADJ_DISSIPATION)
