%%%%%%%%%%%%%%%%%%%%%%%%%%%%%%%%%%%%%%%%%%%%%%%%%%%%%%%%%%%%%%%%%%%%%%%%%%%%%%%%
%                                                                              %
% SU2 configuration file                                                       %
% Case description: Radiative heat transfer in a cavity using P1 Model         %
% Author: Ruben Sanchez                                                        %
% Institution: Chair for Scientific Computing, TU Kaiserslautern               %
% Date: 2019-01-29                                                             %
% File Version 8.0.0 "Harrier"                                                 %
%                                                                              %
%%%%%%%%%%%%%%%%%%%%%%%%%%%%%%%%%%%%%%%%%%%%%%%%%%%%%%%%%%%%%%%%%%%%%%%%%%%%%%%%

%%%%%%%%%%%%%%%%%%%%%%%
% SOLVER TYPE
%%%%%%%%%%%%%%%%%%%%%%%

SOLVER = INC_NAVIER_STOKES

%%%%%%%%%%%%%%%%%%%%%%%
% FLOW PROPERTIES
%%%%%%%%%%%%%%%%%%%%%%%

INC_DENSITY_MODEL= VARIABLE
INC_ENERGY_EQUATION = YES
INC_DENSITY_INIT= 0.00597782417156
INC_TEMPERATURE_INIT= 288.15
INC_VELOCITY_INIT= (0, 0, 0)
INC_NONDIM = DIMENSIONAL

FLUID_MODEL= INC_IDEAL_GAS
SPECIFIC_HEAT_CP= 1004.703
MOLECULAR_WEIGHT= 28.96

VISCOSITY_MODEL= CONSTANT_VISCOSITY
MU_CONSTANT= 1.716e-5

CONDUCTIVITY_MODEL= CONSTANT_CONDUCTIVITY
THERMAL_CONDUCTIVITY_CONSTANT= 0.0246295028571

BODY_FORCE= YES
BODY_FORCE_VECTOR= ( 0.0, -9.81, 0.0 )

%%%%%%%%%%%%%%%%%%%%%%%
% RADIATION MODEL
%%%%%%%%%%%%%%%%%%%%%%%

RADIATION_MODEL = P1
ABSORPTION_COEFF = 0.2
SCATTERING_COEFF = 0.0
P1_INITIALIZATION = TEMPERATURE_INIT
MARKER_EMISSIVITY = ( left, 1.0, right, 1.0 )
CFL_NUMBER_RAD = 1E4

%%%%%%%%%%%%%%%%%%%%%%%
% BOUNDARY CONDITIONS
%%%%%%%%%%%%%%%%%%%%%%%

MARKER_HEATFLUX= ( upper, 0.0, lower, 0.0 )
MARKER_ISOTHERMAL= ( left, 461.04, right, 115.26 )

MARKER_PLOTTING= ( upper, left, right, lower )
MARKER_MONITORING= ( upper, left )

%%%%%%%%%%%%%%%%%%%%%%%
% LINEAR SOLVER
%%%%%%%%%%%%%%%%%%%%%%%

LINEAR_SOLVER= FGMRES
LINEAR_SOLVER_PREC= ILU
LINEAR_SOLVER_ILU_FILL_IN= 0
LINEAR_SOLVER_ERROR= 1E-8
LINEAR_SOLVER_ITER= 10

%%%%%%%%%%%%%%%%%%%%%%%
% SOLUTION METHOD
%%%%%%%%%%%%%%%%%%%%%%%

NUM_METHOD_GRAD= WEIGHTED_LEAST_SQUARES
CONV_NUM_METHOD_FLOW= FDS
MUSCL_FLOW= YES
SLOPE_LIMITER_FLOW= NONE
TIME_DISCRE_FLOW= EULER_IMPLICIT
CFL_NUMBER= 100

%%%%%%%%%%%%%%%%%%%%%%%
% CONVERGENCE CRITERIA
%%%%%%%%%%%%%%%%%%%%%%%

INNER_ITER= 101

CONV_RESIDUAL_MINVAL= -10
CONV_STARTITER= 10
CONV_CAUCHY_ELEMS= 100
CONV_CAUCHY_EPS= 1E-6

%%%%%%%%%%%%%%%%%%%%%%%
% OUTPUT
%%%%%%%%%%%%%%%%%%%%%%%

SCREEN_OUTPUT = (INNER_ITER, RMS_PRESSURE, RMS_VELOCITY-X, RMS_TEMPERATURE, RMS_RAD_ENERGY, TOTAL_HEATFLUX)

MESH_FORMAT= SU2
MESH_FILENAME= meshp1.su2

OUTPUT_FILES = (RESTART, PARAVIEW)
SOLUTION_FILENAME= solution_flow_p1.dat
RESTART_FILENAME= restart_flow_p1.dat
VOLUME_FILENAME= flow_p1

TABULAR_FORMAT= CSV
CONV_FILENAME= history_p1
