% TobiKattmann 2021-03-11
%
SOLVER= INC_NAVIER_STOKES
OBJECTIVE_FUNCTION= AVG_TEMPERATURE
%OBJECTIVE_FUNCTION= DRAG
OBJECTIVE_WEIGHT= 0.0

% ---------------- INCOMPRESSIBLE FLOW CONDITION DEFINITION -------------------%
%
INC_NONDIM= DIMENSIONAL
% ~Water at room temperature
INC_DENSITY_MODEL= CONSTANT
INC_DENSITY_INIT= 1.0e3
%
% Re = rho*v*d/mu_dyn = 1e3*v*1/1e-3 = 200 => v = 2.0e-4
INC_VELOCITY_INIT= ( 2.0e-4, 0.0, 0.0 )
%
INC_ENERGY_EQUATION= YES
INC_TEMPERATURE_INIT= 288.15
SPECIFIC_HEAT_CP= 4180
VISCOSITY_MODEL= CONSTANT_VISCOSITY
MU_CONSTANT= 1.0e-3
%
% Pr = c_p * mu_dyn / lambda
% lambda_water = 0.6 => Pr = 4180 * 1e-3 / 0.6 = 6.96
CONDUCTIVITY_MODEL= CONSTANT_PRANDTL
PRANDTL_LAM = 6.96

% -------------------- BOUNDARY CONDITION DEFINITION --------------------------%
%
MARKER_FAR= ( farfield )
%MARKER_HEATFLUX= ( cylinder_fluid, 1e2 )

% ------------- COMMON PARAMETERS DEFINING THE NUMERICAL METHOD ---------------%
%
NUM_METHOD_GRAD= GREEN_GAUSS
CFL_NUMBER= 1e3
CFL_ADAPT= NO
CFL_ADAPT_PARAM= ( 0.8, 1.4, 10.0, 1e10, 0.001 )
RK_ALPHA_COEFF= ( 0.66667, 0.66667, 1.000000 )

% ------------------------ LINEAR SOLVER DEFINITION ---------------------------%
%
LINEAR_SOLVER= FGMRES
LINEAR_SOLVER_PREC= ILU
LINEAR_SOLVER_ERROR= 1E-8
LINEAR_SOLVER_ITER= 20
CONV_NUM_METHOD_FLOW= FDS
MUSCL_FLOW= YES
SLOPE_LIMITER_FLOW= NONE
TIME_DISCRE_FLOW= EULER_IMPLICIT

% --------------------------- CONVERGENCE PARAMETERS --------------------------%
%
CONV_RESIDUAL_MINVAL= -20
CONV_STARTITER= 2000
CONV_CAUCHY_ELEMS= 100
CONV_CAUCHY_EPS= 1E-6

% ------------------------- INPUT/OUTPUT INFORMATION --------------------------%
%
MARKER_MONITORING= ( cylinder_fluid )
MARKER_ANALYZE= ( cylinder_fluid )
MARKER_ANALYZE_AVERAGE= AREA
