
%%%%%%%%%%%%%%%%%%%%%%%%%%%%%%%%%%%%%%%%%%%%%%%%%%%%%%%%%%%%%%%%%%%%%%%%%%%%%%%%
%                                                                              %
% SU2 configuration file                                                       %
%                                                                              %
% Author: Jairo Paes Cavalcante Filho [Based on T. Economon & M. Pini work]    %
% Institution: University of São Paulo                                         %
% Date: 8-JUL-2018                                                             %
% File Version 8.0.0 "Harrier"                                                 %
%                                                                              %
%%%%%%%%%%%%%%%%%%%%%%%%%%%%%%%%%%%%%%%%%%%%%%%%%%%%%%%%%%%%%%%%%%%%%%%%%%%%%%%%

% ------------- DIRECT, ADJOINT, AND LINEARIZED PROBLEM DEFINITION ------------%
%
SOLVER= EULER
KIND_TURB_MODEL= NONE
MATH_PROBLEM= DISCRETE_ADJOINT
AXISYMMETRIC= NO
RESTART_SOL= NO
DISCARD_INFILES= NO
SYSTEM_MEASUREMENTS= SI

% -------------------- COMPRESSIBLE FREE-STREAM
%
MACH_NUMBER= 0.2395
AOA= 0.0
SIDESLIP_ANGLE= 0.0
FREESTREAM_OPTION= TEMPERATURE_FS
FREESTREAM_PRESSURE= 100000.0
FREESTREAM_TEMPERATURE= 288.0
%
FREESTREAM_DENSITY= 1.2092
FREESTREAM_VELOCITY= ( 1.0, 0.00, 0.00 )
REF_DIMENSIONALIZATION= FREESTREAM_PRESS_EQ_ONE

REF_ORIGIN_MOMENT_X = 0.25
REF_ORIGIN_MOMENT_Y = 0.00
REF_ORIGIN_MOMENT_Z = 0.00
REF_LENGTH= 1.0
REF_AREA= 1.0

% ---- IDEAL GAS, POLYTROPIC, VAN DER WAALS AND PENG ROBINSON CONSTANTS -------%
%
FLUID_MODEL= IDEAL_GAS
GAMMA_VALUE= 1.338
GAS_CONSTANT= 518.28
CRITICAL_TEMPERATURE= 190.564
CRITICAL_PRESSURE= 4599200.0
ACENTRIC_FACTOR= 0.01142

% ------------------------ SUPERSONIC SIMULATION ------------------------------%
%
EQUIV_AREA= NO

% --------------------- INVERSE DESIGN SIMULATION -----------------------------%
%
INV_DESIGN_CP= YES

% -------------------- BOUNDARY CONDITION DEFINITION --------------------------%
%
MARKER_EULER= ( WALL1 )
MARKER_SYM= ( SYMMETRY )
MARKER_INTERNAL= ( NONE )
MARKER_NEARFIELD= ( NONE )
INLET_TYPE= TOTAL_CONDITIONS
SPECIFIED_INLET_PROFILE= NO
MARKER_INLET= ( INFLOW, 288.0 100000.0, 1.0, 0.0, 0.0 )
MARKER_OUTLET= ( OUTFLOW, 83049.0 )
%
MARKER_SHROUD= (NONE)
MARKER_FLUID_INTERFACE= ( NONE )
MARKER_TURBOMACHINERY= ( NONE )
MARKER_MIXINGPLANE_INTERFACE= ( NONE )
MARKER_GILES= ( NONE )

% ------------------------ SURFACES IDENTIFICATION ----------------------------%
%
MARKER_PLOTTING = ( WALL1 )
MARKER_MONITORING = ( WALL1 )
MARKER_PYTHON_CUSTOM = ( NONE )
MARKER_DESIGNING = ( WALL1 )
MARKER_ANALYZE = ( WALL1 )

% ------------- COMMON PARAMETERS DEFINING THE NUMERICAL METHOD ---------------%
%
NUM_METHOD_GRAD= WEIGHTED_LEAST_SQUARES
CFL_NUMBER= 0.94
CFL_ADAPT= NO
CFL_ADAPT_PARAM= ( 1.5, 0.5, 1.25, 50.0 )
MAX_DELTA_TIME= 1E6
RK_ALPHA_COEFF= ( 0.66667, 0.66667, 1.000000 )
OBJECTIVE_FUNCTION= INVERSE_DESIGN_PRESSURE
OBJECTIVE_WEIGHT = 1.0

% ----------- SLOPE LIMITER AND DISSIPATION SENSOR DEFINITION -----------------%
%
LAX_SENSOR_COEFF= 0.15
JST_SENSOR_COEFF= ( 0.5, 0.02 )

% ------------------------ LINEAR SOLVER DEFINITION ---------------------------%
%
LINEAR_SOLVER= FGMRES
LINEAR_SOLVER_PREC= LU_SGS
LINEAR_SOLVER_ILU_FILL_IN= 0
LINEAR_SOLVER_ERROR= 1E-4
LINEAR_SOLVER_ITER= 20

% -------------------------- MULTIGRID PARAMETERS -----------------------------%
%
MGLEVEL= 2
MGCYCLE= V_CYCLE
MG_PRE_SMOOTH= ( 1, 2, 3, 3 )
MG_POST_SMOOTH= ( 0, 0, 0, 0 )
MG_CORRECTION_SMOOTH= ( 0, 0, 0, 0 )
MG_DAMP_RESTRICTION= 0.75
MG_DAMP_PROLONGATION= 0.75

% -------------------- FLOW NUMERICAL METHOD DEFINITION -----------------------%
%
CONV_NUM_METHOD_FLOW= JST
LOW_MACH_CORR= NO
LOW_MACH_PREC= NO
ENTROPY_FIX_COEFF= 0.0
TIME_DISCRE_FLOW= EULER_IMPLICIT

% ---------------- ADJOINT-FLOW NUMERICAL METHOD DEFINITION -------------------%
%
CONV_NUM_METHOD_ADJFLOW= JST
TIME_DISCRE_ADJFLOW= EULER_IMPLICIT
RELAXATION_FACTOR_ADJOINT= 1.0
CFL_REDUCTION_ADJFLOW= 0.96
LIMIT_ADJFLOW= 1E6
MG_ADJFLOW= YES

% ----------------------- GEOMETRY EVALUATION PARAMETERS ----------------------%
%
GEO_MARKER= ( WALL1 )
GEO_DESCRIPTION= AIRFOIL
GEO_PLOT_STATIONS= NO
GEO_MODE= FUNCTION

% ----------------------- DESIGN VARIABLE PARAMETERS --------------------------%
%
DV_KIND= HICKS_HENNE
DV_MARKER= ( WALL1 )
DV_PARAM= ( 0, 0.5 )
DV_VALUE= 0.01

% ------------------------ GRID DEFORMATION PARAMETERS ------------------------%
%
DEFORM_LINEAR_SOLVER= BCGSTAB
DEFORM_LINEAR_SOLVER_PREC= LU_SGS
DEFORM_LINEAR_SOLVER_ITER= 1000
DEFORM_NONLINEAR_ITER= 1
DEFORM_CONSOLE_OUTPUT= YES
DEFORM_LINEAR_SOLVER_ERROR= 1E-14
DEFORM_COEFF = 0.1
DEFORM_STIFFNESS_TYPE= INVERSE_VOLUME
DEFORM_LIMIT = 0.3

% --------------------------- CONVERGENCE PARAMETERS --------------------------%
%
ITER= 12000
CONV_RESIDUAL_MINVAL= -9.00
CONV_STARTITER= 20
CONV_CAUCHY_ELEMS= 100
CONV_CAUCHY_EPS= 1E-10

% ------------------------- INPUT/OUTPUT INFORMATION --------------------------%
%
MESH_FILENAME= Arina2Kmesh.su2
MESH_FORMAT= SU2
MESH_OUT_FILENAME= MESHOUT_Arina2Kmesh.su2
SOLUTION_FILENAME= solution_flow.dat
SOLUTION_ADJ_FILENAME= solution_adj.dat
TABULAR_FORMAT= CSV
CONV_FILENAME= history
BREAKDOWN_FILENAME= forces_breakdown.dat
RESTART_FILENAME= restart_flow.dat
RESTART_ADJ_FILENAME= restart_adj.dat
VOLUME_FILENAME= flow
VOLUME_ADJ_FILENAME= adjoint
VALUE_OBJFUNC_FILENAME= of_eval.dat
GRAD_OBJFUNC_FILENAME= of_grad.dat
SURFACE_FILENAME= surface_flow
SURFACE_ADJ_FILENAME= surface_adjoint
OUTPUT_WRT_FREQ= 1000
READ_BINARY_RESTART= YES
REORIENT_ELEMENTS= YES
SCREEN_OUTPUT = (INNER_ITER, RMS_ADJ_DENSITY, RMS_ADJ_ENERGY, SENS_PRESS, SENS_AOA)

% --------------------- OPTIMAL SHAPE DESIGN DEFINITION -----------------------%
%
OPT_OBJECTIVE= INVERSE_DESIGN_PRESSURE * 0.9
OPT_CONSTRAINT= ( AIRFOIL_THICKNESS > 0.049999999999 ) * 0.9
OPT_GRADIENT_FACTOR= 1E-6
OPT_RELAX_FACTOR= 1E3
OPT_ITERATIONS= 1
OPT_ACCURACY= 1E-1
OPT_LINE_SEARCH_BOUND= 1E6
OPT_BOUND_UPPER= 5E-3
OPT_BOUND_LOWER= -5E-3
FIN_DIFF_STEP = 0.001
DEFINITION_DV= ( 30 , 1.0 | WALL1 | 0 , 0.05  ); ( 30 , 1.0 | WALL1 | 0 , 0.1  ); ( 30 , 1.0 | WALL1 | 0 , 0.15  ); ( 30 , 1.0 | WALL1 | 0 , 0.2  ); ( 30 , 1.0 | WALL1 | 0 , 0.25  ); ( 30 , 1.0 | WALL1 | 0 , 0.3  ); ( 30 , 1.0 | WALL1 | 0 , 0.35  ); ( 30 , 1.0 | WALL1 | 0 , 0.4  ); ( 30 , 1.0 | WALL1 | 0 , 0.45  ); ( 30 , 1.0 | WALL1 | 0 , 0.5  ); ( 30 , 1.0 | WALL1 | 0 , 0.505  ); ( 30 , 1.0 | WA
%
OPT_COMBINE_OBJECTIVE = YES
