%%%%%%%%%%%%%%%%%%%%%%%%%%%%%%%%%%%%%%%%%%%%%%%%%%%%%%%%%%%%%%%%%%%%%%%%%%%%%%%%
%                                                                              %
% SU2 configuration file                                                       %
% Case description: Heat Transfer BC Testcase with 2D-pin-setup                %
% Author: T. Kattmann                                                          %
% Institution: Robert Bosch GmbH                                               %
% Date: 2020.12.15                                                             %
% File Version 8.0.0 "Harrier"                                                 %
%                                                                              %
%%%%%%%%%%%%%%%%%%%%%%%%%%%%%%%%%%%%%%%%%%%%%%%%%%%%%%%%%%%%%%%%%%%%%%%%%%%%%%%%
%
% ------------- DIRECT, ADJOINT, AND LINEARIZED PROBLEM DEFINITION ------------%
%
SOLVER= INC_NAVIER_STOKES
%
KIND_TURB_MODEL= NONE
%
OBJECTIVE_FUNCTION= AVG_TEMPERATURE
OBJECTIVE_WEIGHT= 0.0
%
OPT_OBJECTIVE= NONE
% ---------------- INCOMPRESSIBLE FLOW CONDITION DEFINITION -------------------%
%
INC_DENSITY_MODEL= CONSTANT
INC_DENSITY_INIT= 1045.0
INC_VELOCITY_INIT= ( 0.1, 0.0, 0.0 )
%
INC_ENERGY_EQUATION = YES
INC_TEMPERATURE_INIT= 338.0
INC_NONDIM= INITIAL_VALUES
SPECIFIC_HEAT_CP= 3540.0
%
FREESTREAM_TURBULENCEINTENSITY= 0.05
FREESTREAM_TURB2LAMVISCRATIO= 10.0
%
% --------------------------- VISCOSITY MODEL ---------------------------------%
%
VISCOSITY_MODEL= CONSTANT_VISCOSITY
MU_CONSTANT= 0.001385
%
% --------------------------- THERMAL CONDUCTIVITY MODEL ----------------------%
%
% Pr_lam = mu_lam [Pa*s] * c_p [J/(kg*K)] / lambda[W/(m*K)]
%        = 1.385e-3      * 3540           / 0.42
%        = 11.7 
CONDUCTIVITY_MODEL= CONSTANT_PRANDTL
PRANDTL_LAM= 11.7
%
TURBULENT_CONDUCTIVITY_MODEL= CONSTANT_PRANDTL_TURB
PRANDTL_TURB= 0.90
%
% -------------------- BOUNDARY CONDITION DEFINITION --------------------------%
%
MARKER_SYM= ( fluid_symmetry )
%
% Note that a heat-transfer coefficient of zero will result in an adiabatic wall,
% equivalent to MARKER_HEATFLUX= ( fluid_pin1_interface, 0.0, ... ).
% In the other extreme of a high heat-transfer coefficient value (like shown below),
% the boundary will degenerate to a MARKER_ISOTHERMAL= (fluid_pin1_interface, 400, ... ).
% With 400 above being the reservoir Temperature (or called Temperature at infinity).
MARKER_HEATTRANSFER= ( fluid_pin1_interface, 100000000.0, 400, \
                       fluid_pin2_interface, 100000000.0, 400, \
                       fluid_pin3_interface, 100000000.0, 400 )
%
% Alternative options for non-periodic flow
INC_INLET_TYPE= VELOCITY_INLET
MARKER_INLET= ( fluid_inlet, 338.0, 0.3, 1.0, 0.0, 0.0 )
%
INC_OUTLET_TYPE= PRESSURE_OUTLET
MARKER_OUTLET= ( fluid_outlet, 0.0 )
%
% ------------------------ SURFACES IDENTIFICATION ----------------------------%
%
MARKER_MONITORING= ( fluid_pin2_interface )
%
MARKER_ANALYZE = ( fluid_pin2_interface )
MARKER_ANALYZE_AVERAGE = AREA
%
% ------------- COMMON PARAMETERS DEFINING THE NUMERICAL METHOD ---------------%
%
ITER= 1000
NUM_METHOD_GRAD= GREEN_GAUSS
CFL_NUMBER= 1e3
%
% ------------------------ LINEAR SOLVER DEFINITION ---------------------------%
%
LINEAR_SOLVER= FGMRES
LINEAR_SOLVER_PREC= ILU
LINEAR_SOLVER_ERROR= 1e-15
LINEAR_SOLVER_ITER= 10
%
% -------------------- FLOW NUMERICAL METHOD DEFINITION -----------------------%
%
CONV_NUM_METHOD_FLOW= FDS
MUSCL_FLOW= YES
SLOPE_LIMITER_FLOW= NONE
TIME_DISCRE_FLOW= EULER_IMPLICIT
%
% -------------------- TURBULENT NUMERICAL METHOD DEFINITION ------------------%
%
CONV_NUM_METHOD_TURB= SCALAR_UPWIND
MUSCL_TURB= NO
SLOPE_LIMITER_TURB= NONE
TIME_DISCRE_TURB= EULER_IMPLICIT
%
% --------------------------- CONVERGENCE PARAMETERS --------------------------%
%
CONV_RESIDUAL_MINVAL= -26
CONV_STARTITER= 100000000
%
% ------------------------- INPUT/OUTPUT INFORMATION --------------------------%
%
MESH_FILENAME= fluid.su2
%
% SURFACE_STATIC_TEMPERATURE had to be removed from SCREEN_OUTPUT for the regression tests
SCREEN_OUTPUT= ( INNER_ITER, RMS_PRESSURE, RMS_VELOCITY-X, RMS_VELOCITY-Y, RMS_TEMPERATURE, TOTAL_HEATFLUX)
SCREEN_WRT_FREQ_INNER= 1
%
HISTORY_OUTPUT= ( ITER, RMS_RES, STREAMWISE_PERIODIC, FLOW_COEFF, LINSOL, HEAT )
%
OUTPUT_FILES=(PARAVIEW_MULTIBLOCK)
OUTPUT_WRT_FREQ= 100000
VOLUME_OUTPUT= (SOLUTION, PRIMITIVE, RESIDUAL)
