%%%%%%%%%%%%%%%%%%%%%%%%%%%%%%%%%%%%%%%%%%%%%%%%%%%%%%%%%%%%%%%%%%%%%%%%%%%%%%%%
%                                                                              %
% SU2 configuration file                                                       %
% Case description: Unit Cell flow around pin array (fluid)                    %
% Author: T. Kattmann                                                          %
% Institution: Robert Bosch GmbH                                               %
% Date: 2020.12.15                                                             %
% File Version 8.0.0 "Harrier"                                                 %
%                                                                              %
%%%%%%%%%%%%%%%%%%%%%%%%%%%%%%%%%%%%%%%%%%%%%%%%%%%%%%%%%%%%%%%%%%%%%%%%%%%%%%%%
%
% ------------- DIRECT, ADJOINT, AND LINEARIZED PROBLEM DEFINITION ------------%
%
SOLVER= INC_RANS
%
KIND_TURB_MODEL= SST
%
OBJECTIVE_FUNCTION= AVG_TEMPERATURE
OBJECTIVE_WEIGHT= 0.0
%
OPT_OBJECTIVE= NONE
% ---------------- INCOMPRESSIBLE FLOW CONDITION DEFINITION -------------------%
%
INC_DENSITY_MODEL= CONSTANT
INC_DENSITY_INIT= 1045.0
INC_VELOCITY_INIT= ( 0.1, 0.0, 0.0 )
%
INC_ENERGY_EQUATION = YES
INC_TEMPERATURE_INIT= 338.0
INC_NONDIM= DIMENSIONAL
SPECIFIC_HEAT_CP= 3540.0
%
FREESTREAM_TURBULENCEINTENSITY= 0.05
FREESTREAM_TURB2LAMVISCRATIO= 10.0
%
% --------------------------- VISCOSITY MODEL ---------------------------------%
%
VISCOSITY_MODEL= CONSTANT_VISCOSITY
MU_CONSTANT= 0.001385
%
% --------------------------- THERMAL CONDUCTIVITY MODEL ----------------------%
%
% Pr_lam = mu_lam [Pa*s] * c_p [J/(kg*K)] / lambda[W/(m*K)]
%        = 1.385e-3      * 3540           / 0.42
%        = 11.7 
CONDUCTIVITY_MODEL= CONSTANT_PRANDTL
PRANDTL_LAM= 11.7
%
TURBULENT_CONDUCTIVITY_MODEL= CONSTANT_PRANDTL_TURB
PRANDTL_TURB= 0.90
%
% --------------------- STREAMWISE PERIODICITY DEFINITION ---------------------%
%
KIND_STREAMWISE_PERIODIC= PRESSURE_DROP
STREAMWISE_PERIODIC_PRESSURE_DROP= 208.023676
%STREAMWISE_PERIODIC_MASSFLOW= 0.85
%INC_OUTLET_DAMPING= 0.001
%
STREAMWISE_PERIODIC_TEMPERATURE= NO
%
% inner pin length 0.00376991 m = (0.00322-0.00262)*2*pi
% with 5e5 W/m that is Q = 1884.96
STREAMWISE_PERIODIC_OUTLET_HEAT= -1884.96
%
% -------------------- BOUNDARY CONDITION DEFINITION --------------------------%
%
MARKER_SYM= ( fluid_symmetry )
MARKER_PERIODIC= ( fluid_inlet, fluid_outlet, 0.0,0.0,0.0, 0.0,0.0,0.0, 0.0111544,0.0,0.0 )
%
% Alternative to periodic simulation with velocity inlet and pressure outlet
%MARKER_HEATFLUX= ( fluid_pin1_interface, 5e5, \
%                   fluid_pin2_interface, 5e5, \
%                   fluid_pin3_interface, 5e5 )
%
% Alternative options for non-periodic flow
%INC_INLET_TYPE= VELOCITY_INLET
%MARKER_INLET= ( fluid_inlet, 338.0, 0.75, 1.0, 0.0, 0.0 )
% Test vals to hinder outlet backflow
%MARKER_INLET= ( fluid_inlet, 338.0, 0.3, 1.0, 0.0, 0.0 )
%
%INC_OUTLET_TYPE= PRESSURE_OUTLET
%MARKER_OUTLET= ( fluid_outlet, 0.0 )
%
% ------------------------ SURFACES IDENTIFICATION ----------------------------%
%
MARKER_MONITORING= ( NONE )
%
MARKER_ANALYZE = ( fluid_outlet, fluid_inlet )
MARKER_ANALYZE_AVERAGE = MASSFLUX
%
% ------------- COMMON PARAMETERS DEFINING THE NUMERICAL METHOD ---------------%
%
%ITER= 3500
NUM_METHOD_GRAD= GREEN_GAUSS
CFL_NUMBER= 1e3
%
% ------------------------ LINEAR SOLVER DEFINITION ---------------------------%
%
LINEAR_SOLVER= FGMRES
LINEAR_SOLVER_PREC= ILU
LINEAR_SOLVER_ERROR= 1e-15
LINEAR_SOLVER_ITER= 10
%
% -------------------- FLOW NUMERICAL METHOD DEFINITION -----------------------%
%
CONV_NUM_METHOD_FLOW= FDS
MUSCL_FLOW= YES
SLOPE_LIMITER_FLOW= NONE
TIME_DISCRE_FLOW= EULER_IMPLICIT
%
% -------------------- TURBULENT NUMERICAL METHOD DEFINITION ------------------%
%
CONV_NUM_METHOD_TURB= SCALAR_UPWIND
MUSCL_TURB= NO
SLOPE_LIMITER_TURB= NONE
TIME_DISCRE_TURB= EULER_IMPLICIT
%
% --------------------------- CONVERGENCE PARAMETERS --------------------------%
%
CONV_RESIDUAL_MINVAL= -26
CONV_STARTITER= 100000000
%
% ------------------------- INPUT/OUTPUT INFORMATION --------------------------%
%
%MESH_FILENAME= fluid.su2
%
HISTORY_OUTPUT= ( ITER, RMS_RES, STREAMWISE_PERIODIC, FLOW_COEFF, LINSOL, HEAT )
