%%%%%%%%%%%%%%%%%%%%%%%%%%%%%%%%%%%%%%%%%%%%%%%%%%%%%%%%%%%%%%%%%%%%%%%%%%%%%%%%
%                                                                              %
% SU2 configuration file                                                       %
% Case description: Unit Cell flow around pin array (fluid)
% Author: T. Kattmann
% Institution: Robert Bosch GmbH
% Date: 07.06.2019
% File Version 6.2.0 "Falcon"                                                  %
%                                                                              %
%%%%%%%%%%%%%%%%%%%%%%%%%%%%%%%%%%%%%%%%%%%%%%%%%%%%%%%%%%%%%%%%%%%%%%%%%%%%%%%%
%
% ------------- DIRECT, ADJOINT, AND LINEARIZED PROBLEM DEFINITION ------------%
%
SOLVER= INC_RANS
KIND_TURB_MODEL= SST
RESTART_SOL= NO
READ_BINARY_RESTART= YES
%
HISTORY_OUTPUT= ( ITER, RMS_RES, STREAMWISE_PERIODIC, FLOW_COEFF, LINSOL, HEAT )
%
%OBJECTIVE_FUNCTION= DRAG
OBJECTIVE_FUNCTION= TOTAL_AVG_TEMPERATURE
OPT_OBJECTIVE= NONE
%
OBJECTIVE_WEIGHT= 0.0
% ---------------- INCOMPRESSIBLE FLOW CONDITION DEFINITION -------------------%
%
INC_DENSITY_MODEL= CONSTANT
INC_ENERGY_EQUATION = YES
%
% Serves as material parameter
INC_DENSITY_INIT= 1045.0
INC_VELOCITY_INIT= ( 0.1, 0.0, 0.0 )
INC_TEMPERATURE_INIT= 338.0
%
%INC_NONDIM= INITIAL_VALUES
INC_NONDIM= DIMENSIONAL
%
% ---- IDEAL GAS, POLYTROPIC, VAN DER WAALS AND PENG ROBINSON CONSTANTS -------%
%
% Redundant to INC_DENSITY_MODEL
FLUID_MODEL= CONSTANT_DENSITY
SPECIFIC_HEAT_CP= 3540.0
%
% --------------------------- VISCOSITY MODEL ---------------------------------%
%
VISCOSITY_MODEL= CONSTANT_VISCOSITY
MU_CONSTANT= 0.001385
%
% --------------------------- THERMAL CONDUCTIVITY MODEL ----------------------%
%
% Pr_lam = mu_lam [Pa*s] * c_p [J/(kg*K)] / lambda[W/(m*K)]
%        = 1.385e-3      * 3540           / 0.42
%        = 11.7 
CONDUCTIVITY_MODEL= CONSTANT_PRANDTL
PRANDTL_LAM= 11.7
%
TURBULENT_CONDUCTIVITY_MODEL= CONSTANT_PRANDTL_TURB
PRANDTL_TURB= 0.90
%
% --------------------- STREAMWISE PERIODICITY DEFINITION ---------------------%
%
% Specify type of streamwise periodicty (NONE, PRESSURE_DROP, MASSFLOW)
%KIND_STREAMWISE_PERIODIC= MASSFLOW
KIND_STREAMWISE_PERIODIC= PRESSURE_DROP
%
% Delta P value that drives the flow as a source term in the momentum equations.
% Defaults to 1.0. Was set to 210 before
%STREAMWISE_PERIODIC_PRESSURE_DROP= 210
STREAMWISE_PERIODIC_PRESSURE_DROP= 208.023676
%
% Target massflow. Necessary pressure drop is determined iteratively. 
% Initial value is given via STREAMWISE_PERIODIC_PRESSURE_DROP.
% Use INC_OUTLET_DAMPING as a relaxation factor. Default value 0.1 is a good start.
STREAMWISE_PERIODIC_MASSFLOW= 0.85
%
INC_OUTLET_DAMPING= 0.001

STREAMWISE_PERIODIC_TEMPERATURE= NO

% inner pin length 0.00376991 m = (0.00322-0.00262)*2*pi
% with 5e5 W/m that is Q = 1884.96
STREAMWISE_PERIODIC_OUTLET_HEAT= -1884.96
%STREAMWISE_PERIODIC_OUTLET_HEAT= -0.000001
% -------------------- BOUNDARY CONDITION DEFINITION --------------------------%
%
%MARKER_HEATFLUX= ( fluid_pin1_interface, 5e5, fluid_pin2_interface, 5e5, fluid_pin3_interface, 5e5 )
%
MARKER_SYM= ( fluid_symmetry )
%
% Periodic boundary marker(s) (NONE = no marker)
% Format: ( periodic marker, donor marker, rotation_center_x, rotation_center_y,
% rotation_center_z, rotation_angle_x-axis, rotation_angle_y-axis,
% rotation_angle_z-axis, translation_x, translation_y, translation_z, ... )
MARKER_PERIODIC= ( fluid_inlet, fluid_outlet, 0.0,0.0,0.0, 0.0,0.0,0.0, 0.0111544,0.0,0.0 )
%
% Alternative to periodic simulation
%INC_INLET_TYPE= VELOCITY_INLET
%MARKER_INLET= ( fluid_inlet, 338.0, 0.75, 1.0, 0.0, 0.0 )
% Test vals to hinder outlet backflow
%MARKER_INLET= ( fluid_inlet, 338.0, 0.3, 1.0, 0.0, 0.0 )
%
%INC_OUTLET_TYPE= PRESSURE_OUTLET
%MARKER_OUTLET= ( fluid_outlet, 0.0 )
%
FREESTREAM_TURBULENCEINTENSITY= 0.05
FREESTREAM_TURB2LAMVISCRATIO= 10.0
%
% ------------------------ SURFACES IDENTIFICATION ----------------------------%
%
MARKER_PLOTTING= (  fluid_pin1_interface, fluid_pin2_interface, fluid_pin3_interface )
%MARKER_MONITORING= ( fluid_inlet, fluid_outlet )
MARKER_MONITORING= ( NONE )
%
% Massflow averaged total pressure difference between in- and outlet is the target
%MARKER_ANALYZE = ( fluid_outlet, fluid_inlet )
%MARKER_ANALYZE_AVERAGE = MASSFLUX
MARKER_ANALYZE = ( fluid_pin2_interface )
MARKER_ANALYZE_AVERAGE = AREA
%
% ------------- COMMON PARAMETERS DEFINING THE NUMERICAL METHOD ---------------%
%
NUM_METHOD_GRAD= GREEN_GAUSS
CFL_NUMBER= 1e3
CFL_ADAPT= NO
%
% ------------------------ LINEAR SOLVER DEFINITION ---------------------------%
%
LINEAR_SOLVER= FGMRES
LINEAR_SOLVER_PREC= ILU
LINEAR_SOLVER_ERROR= 1E-15
LINEAR_SOLVER_ITER= 10
%
% -------------------------- MULTIGRID PARAMETERS -----------------------------%
%
% Multi-grid levels (0 = no multi-grid)
MGLEVEL= 0
%
% Multi-grid cycle (V_CYCLE, W_CYCLE, FULLMG_CYCLE)
MGCYCLE= V_CYCLE
%
% Multi-grid pre-smoothing level
MG_PRE_SMOOTH= ( 1, 2, 3, 3 )
%
% Multi-grid post-smoothing level
MG_POST_SMOOTH= ( 0, 0, 0, 0 )
%
% Jacobi implicit smoothing of the correction
MG_CORRECTION_SMOOTH= ( 0, 0, 0, 0 )
%
% Damping factor for the residual restriction
MG_DAMP_RESTRICTION= 0.75
%
% Damping factor for the correction prolongation
MG_DAMP_PROLONGATION= 0.75
%
% -------------------- FLOW NUMERICAL METHOD DEFINITION -----------------------%
%
CONV_NUM_METHOD_FLOW= FDS
MUSCL_FLOW= YES
SLOPE_LIMITER_FLOW= NONE
TIME_DISCRE_FLOW= EULER_IMPLICIT
%
% -------------------- TURBULENT NUMERICAL METHOD DEFINITION ------------------%
%
CONV_NUM_METHOD_TURB= SCALAR_UPWIND
MUSCL_TURB= NO
SLOPE_LIMITER_TURB= NONE
TIME_DISCRE_TURB= EULER_IMPLICIT
%
% --------------------------- CONVERGENCE PARAMETERS --------------------------%
%
CONV_CRITERIA= RESIDUAL
%RESIDUAL_REDUCTION= 18
CONV_RESIDUAL_MINVAL= -26
CONV_STARTITER= 100000000
%
% ------------------------- INPUT/OUTPUT INFORMATION --------------------------%
%
%MESH_FILENAME= fluid.su2
MESH_FORMAT= SU2
%
%SOLUTION_FILENAME= solution_flow
%RESTART_FILENAME= solution_flow
%
VOLUME_FILENAME= flow
%SURFACE_FILENAME= surface_flow
WRT_CON_FREQ= 1
WRT_RESIDUALS= YES
WRT_LIMITERS= YES
%
CONV_FILENAME= history
BREAKDOWN_FILENAME= forces_breakdown
VALUE_OBJFUNC_FILENAME= of_eval
GRAD_OBJFUNC_FILENAME= of_grad_fluid.csv
%
SOLUTION_ADJ_FILENAME= solution_adj
RESTART_ADJ_FILENAME= solution_adj
VOLUME_ADJ_FILENAME= adjoint
SURFACE_ADJ_FILENAME= surface_adjoint
